download/pglib-opf-master/api/pglib_opf_case300_ieee__api.m
%%%%%%%%%%%%%%%%%%%%%%%%%%%%%%%%%%%%%%%%%%%%%%%%%%%%%%%%%%%%%%%%%%%%%%%%%%%
%%%%                                                                  %%%%%
%%%%    IEEE PES Power Grid Library - Optimal Power Flow - v19.05     %%%%%
%%%%          (https://github.com/power-grid-lib/pglib-opf)           %%%%%
%%%%             Benchmark Group - Active Power Increase              %%%%%
%%%%                         08 - May - 2019                          %%%%%
%%%%                                                                  %%%%%
%%%%%%%%%%%%%%%%%%%%%%%%%%%%%%%%%%%%%%%%%%%%%%%%%%%%%%%%%%%%%%%%%%%%%%%%%%%
function mpc = pglib_opf_case300_ieee__api
mpc.version = '2';
mpc.baseMVA = 100.0;

%% bus data
%	bus_i	type	Pd	Qd	Gs	Bs	area	Vm	Va	baseKV	zone	Vmax	Vmin
mpc.bus = [
	1	 1	 101.77	 49.00	 0.0	 0.0	 1	    1.00000	    0.00000	 115.0	 1	    1.06000	    0.94000;
	2	 1	 63.32	 15.00	 0.0	 0.0	 1	    1.00000	    0.00000	 115.0	 1	    1.06000	    0.94000;
	3	 1	 20.00	 0.00	 0.0	 0.0	 1	    1.00000	    0.00000	 230.0	 1	    1.06000	    0.94000;
	4	 1	 0.0	 0.0	 0.0	 0.0	 1	    1.00000	    0.00000	 345.0	 1	    1.06000	    0.94000;
	5	 1	 399.15	 130.00	 0.0	 0.0	 1	    1.00000	    0.00000	 115.0	 1	    1.06000	    0.94000;
	6	 1	 135.69	 41.00	 0.0	 0.0	 1	    1.00000	    0.00000	 115.0	 1	    1.06000	    0.94000;
	7	 1	 0.0	 0.0	 0.0	 0.0	 1	    1.00000	    0.00000	 230.0	 1	    1.06000	    0.94000;
	8	 2	 71.24	 14.00	 0.0	 0.0	 1	    1.00000	    0.00000	 115.0	 1	    1.06000	    0.94000;
	9	 1	 108.55	 43.00	 0.0	 0.0	 1	    1.00000	    0.00000	 115.0	 1	    1.06000	    0.94000;
	10	 2	 173.00	 33.00	 0.0	 0.0	 1	    1.00000	    0.00000	 230.0	 1	    1.06000	    0.94000;
	11	 1	 93.85	 21.00	 0.0	 0.0	 1	    1.00000	    0.00000	 115.0	 1	    1.06000	    0.94000;
	12	 1	 0.0	 0.0	 0.0	 0.0	 1	    1.00000	    0.00000	 230.0	 1	    1.06000	    0.94000;
	13	 1	 65.58	 10.00	 0.0	 0.0	 1	    1.00000	    0.00000	 115.0	 1	    1.06000	    0.94000;
	14	 1	 180.92	 60.00	 0.0	 0.0	 1	    1.00000	    0.00000	 115.0	 1	    1.06000	    0.94000;
	15	 1	 143.26	 23.00	 0.0	 0.0	 1	    1.00000	    0.00000	 115.0	 1	    1.06000	    0.94000;
	16	 1	 0.0	 0.0	 0.0	 0.0	 1	    1.00000	    0.00000	 345.0	 1	    1.06000	    0.94000;
	17	 1	 634.34	 220.00	 0.0	 0.0	 1	    1.00000	    0.00000	 115.0	 1	    1.06000	    0.94000;
	19	 1	 0.0	 0.0	 0.0	 0.0	 1	    1.00000	    0.00000	 230.0	 1	    1.06000	    0.94000;
	20	 2	 684.09	 120.00	 0.0	 0.0	 1	    1.00000	    0.00000	 115.0	 1	    1.06000	    0.94000;
	21	 1	 87.07	 1.00	 0.0	 0.0	 1	    1.00000	    0.00000	 230.0	 1	    1.06000	    0.94000;
	22	 1	 91.59	 23.00	 0.0	 0.0	 1	    1.00000	    0.00000	 115.0	 1	    1.06000	    0.94000;
	23	 1	 23.75	 7.00	 0.0	 0.0	 1	    1.00000	    0.00000	 115.0	 1	    1.06000	    0.94000;
	24	 1	 0.0	 0.0	 0.0	 0.0	 1	    1.00000	    0.00000	 230.0	 1	    1.06000	    0.94000;
	25	 1	 50.88	 12.00	 0.0	 0.0	 1	    1.00000	    0.00000	 115.0	 1	    1.06000	    0.94000;
	26	 1	 31.66	 9.00	 0.0	 0.0	 1	    1.00000	    0.00000	 115.0	 1	    1.06000	    0.94000;
	27	 1	 78.02	 13.00	 0.0	 0.0	 1	    1.00000	    0.00000	 115.0	 1	    1.06000	    0.94000;
	33	 1	 62.19	 6.00	 0.0	 0.0	 1	    1.00000	    0.00000	 115.0	 1	    1.06000	    0.94000;
	34	 1	 0.0	 0.0	 0.0	 0.0	 1	    1.00000	    0.00000	 345.0	 1	    1.06000	    0.94000;
	35	 1	 0.0	 0.0	 0.0	 0.0	 1	    1.00000	    0.00000	 115.0	 1	    1.06000	    0.94000;
	36	 1	 0.0	 0.0	 0.0	 0.0	 1	    1.00000	    0.00000	 230.0	 1	    1.06000	    0.94000;
	37	 1	 96.11	 32.00	 0.0	 0.0	 1	    1.00000	    0.00000	 115.0	 1	    1.06000	    0.94000;
	38	 1	 175.26	 18.00	 0.0	 0.0	 1	    1.00000	    0.00000	 115.0	 1	    1.06000	    0.94000;
	39	 1	 0.0	 0.0	 0.0	 0.0	 1	    1.00000	    0.00000	 345.0	 1	    1.06000	    0.94000;
	40	 1	 46.00	 -21.00	 0.0	 0.0	 1	    1.00000	    0.00000	 115.0	 1	    1.06000	    0.94000;
	41	 1	 86.00	 0.00	 0.0	 0.0	 1	    1.00000	    0.00000	 115.0	 1	    1.06000	    0.94000;
	42	 1	 0.0	 0.0	 0.0	 0.0	 1	    1.00000	    0.00000	 345.0	 1	    1.06000	    0.94000;
	43	 1	 44.10	 9.00	 0.0	 0.0	 1	    1.00000	    0.00000	 115.0	 1	    1.06000	    0.94000;
	44	 1	 220.49	 29.00	 0.0	 0.0	 1	    1.00000	    0.00000	 115.0	 1	    1.06000	    0.94000;
	45	 1	 0.0	 0.0	 0.0	 0.0	 1	    1.00000	    0.00000	 230.0	 1	    1.06000	    0.94000;
	46	 1	 0.0	 0.0	 0.0	 0.0	 1	    1.00000	    0.00000	 345.0	 1	    1.06000	    0.94000;
	47	 1	 65.58	 11.80	 0.0	 0.0	 1	    1.00000	    0.00000	 115.0	 1	    1.06000	    0.94000;
	48	 1	 46.36	 19.00	 0.0	 0.0	 1	    1.00000	    0.00000	 115.0	 1	    1.06000	    0.94000;
	49	 1	 104.03	 26.00	 0.0	 0.0	 1	    1.00000	    0.00000	 115.0	 1	    1.06000	    0.94000;
	51	 1	 -5.00	 5.00	 0.0	 0.0	 1	    1.00000	    0.00000	 115.0	 1	    1.06000	    0.94000;
	52	 1	 68.97	 28.00	 0.0	 0.0	 1	    1.00000	    0.00000	 115.0	 1	    1.06000	    0.94000;
	53	 1	 78.02	 3.00	 0.0	 0.0	 1	    1.00000	    0.00000	 115.0	 1	    1.06000	    0.94000;
	54	 1	 11.31	 1.00	 0.0	 0.0	 1	    1.00000	    0.00000	 115.0	 1	    1.06000	    0.94000;
	55	 1	 24.88	 10.00	 0.0	 0.0	 1	    1.00000	    0.00000	 115.0	 1	    1.06000	    0.94000;
	57	 1	 110.81	 20.00	 0.0	 0.0	 1	    1.00000	    0.00000	 115.0	 1	    1.06000	    0.94000;
	58	 1	 15.83	 1.00	 0.0	 0.0	 1	    1.00000	    0.00000	 115.0	 1	    1.06000	    0.94000;
	59	 1	 246.50	 106.00	 0.0	 0.0	 1	    1.00000	    0.00000	 115.0	 1	    1.06000	    0.94000;
	60	 1	 0.0	 0.0	 0.0	 0.0	 1	    1.00000	    0.00000	 230.0	 1	    1.06000	    0.94000;
	61	 1	 256.68	 110.00	 0.0	 0.0	 1	    1.00000	    0.00000	 115.0	 1	    1.06000	    0.94000;
	62	 1	 0.0	 0.0	 0.0	 0.0	 1	    1.00000	    0.00000	 230.0	 1	    1.06000	    0.94000;
	63	 2	 79.15	 30.00	 0.0	 0.0	 1	    1.00000	    0.00000	 115.0	 1	    1.06000	    0.94000;
	64	 1	 0.0	 0.0	 0.0	 0.0	 1	    1.00000	    0.00000	 230.0	 1	    1.06000	    0.94000;
	69	 1	 0.0	 0.0	 0.0	 0.0	 1	    1.00000	    0.00000	 115.0	 1	    1.06000	    0.94000;
	70	 1	 63.32	 20.00	 0.0	 0.0	 1	    1.00000	    0.00000	 115.0	 1	    1.06000	    0.94000;
	71	 1	 131.16	 38.00	 0.0	 0.0	 1	    1.00000	    0.00000	 115.0	 1	    1.06000	    0.94000;
	72	 1	 64.45	 19.00	 0.0	 0.0	 1	    1.00000	    0.00000	 115.0	 1	    1.06000	    0.94000;
	73	 1	 253.28	 71.00	 0.0	 0.0	 1	    1.00000	    0.00000	 115.0	 1	    1.06000	    0.94000;
	74	 1	 0.0	 0.0	 0.0	 0.0	 1	    1.00000	    0.00000	 230.0	 1	    1.06000	    0.94000;
	76	 2	 235.19	 107.00	 0.0	 0.0	 1	    1.00000	    0.00000	 115.0	 1	    1.06000	    0.94000;
	77	 1	 83.67	 28.00	 0.0	 0.0	 1	    1.00000	    0.00000	 115.0	 1	    1.06000	    0.94000;
	78	 1	 0.0	 0.0	 0.0	 0.0	 1	    1.00000	    0.00000	 115.0	 1	    1.06000	    0.94000;
	79	 1	 54.27	 14.00	 0.0	 0.0	 1	    1.00000	    0.00000	 115.0	 1	    1.06000	    0.94000;
	80	 1	 31.66	 7.00	 0.0	 0.0	 1	    1.00000	    0.00000	 115.0	 1	    1.06000	    0.94000;
	81	 1	 0.0	 0.0	 0.0	 0.0	 1	    1.00000	    0.00000	 345.0	 1	    1.06000	    0.94000;
	84	 2	 41.84	 13.00	 0.0	 0.0	 1	    1.00000	    0.00000	 115.0	 1	    1.06000	    0.94000;
	85	 1	 0.0	 0.0	 0.0	 0.0	 1	    1.00000	    0.00000	 230.0	 1	    1.06000	    0.94000;
	86	 1	 0.0	 0.0	 0.0	 0.0	 1	    1.00000	    0.00000	 230.0	 1	    1.06000	    0.94000;
	87	 1	 0.0	 0.0	 0.0	 0.0	 1	    1.00000	    0.00000	 230.0	 1	    1.06000	    0.94000;
	88	 1	 0.0	 0.0	 0.0	 0.0	 1	    1.00000	    0.00000	 230.0	 1	    1.06000	    0.94000;
	89	 1	 44.20	 0.00	 0.0	 0.0	 1	    1.00000	    0.00000	 115.0	 1	    1.06000	    0.94000;
	90	 1	 66.00	 0.00	 0.0	 0.0	 1	    1.00000	    0.00000	 115.0	 1	    1.06000	    0.94000;
	91	 2	 17.40	 0.00	 0.0	 0.0	 1	    1.00000	    0.00000	 115.0	 1	    1.06000	    0.94000;
	92	 2	 15.80	 0.00	 0.0	 0.0	 1	    1.00000	    0.00000	 115.0	 1	    1.06000	    0.94000;
	94	 1	 60.30	 0.00	 0.0	 0.0	 1	    1.00000	    0.00000	 115.0	 1	    1.06000	    0.94000;
	97	 1	 39.90	 0.00	 0.0	 0.0	 1	    1.00000	    0.00000	 115.0	 1	    1.06000	    0.94000;
	98	 2	 66.70	 0.00	 0.0	 0.0	 1	    1.00000	    0.00000	 115.0	 1	    1.06000	    0.94000;
	99	 1	 83.50	 0.00	 0.0	 0.0	 1	    1.00000	    0.00000	 115.0	 1	    1.06000	    0.94000;
	100	 1	 0.0	 0.0	 0.0	 0.0	 1	    1.00000	    0.00000	 115.0	 1	    1.06000	    0.94000;
	102	 1	 77.80	 0.00	 0.0	 0.0	 1	    1.00000	    0.00000	 115.0	 1	    1.06000	    0.94000;
	103	 1	 32.00	 0.00	 0.0	 0.0	 1	    1.00000	    0.00000	 115.0	 1	    1.06000	    0.94000;
	104	 1	 8.60	 0.00	 0.0	 0.0	 1	    1.00000	    0.00000	 115.0	 1	    1.06000	    0.94000;
	105	 1	 49.60	 0.00	 0.0	 0.0	 1	    1.00000	    0.00000	 115.0	 1	    1.06000	    0.94000;
	107	 1	 4.60	 0.00	 0.0	 0.0	 1	    1.00000	    0.00000	 115.0	 1	    1.06000	    0.94000;
	108	 2	 112.10	 0.00	 0.0	 0.0	 1	    1.00000	    0.00000	 115.0	 1	    1.06000	    0.94000;
	109	 1	 30.70	 0.00	 0.0	 0.0	 1	    1.00000	    0.00000	 115.0	 1	    1.06000	    0.94000;
	110	 1	 63.00	 0.00	 0.0	 0.0	 1	    1.00000	    0.00000	 115.0	 1	    1.06000	    0.94000;
	112	 1	 19.60	 0.00	 0.0	 0.0	 1	    1.00000	    0.00000	 115.0	 1	    1.06000	    0.94000;
	113	 1	 26.20	 0.00	 0.0	 0.0	 1	    1.00000	    0.00000	 115.0	 1	    1.06000	    0.94000;
	114	 1	 18.20	 0.00	 0.0	 0.0	 1	    1.00000	    0.00000	 115.0	 1	    1.06000	    0.94000;
	115	 1	 0.0	 0.0	 0.0	 0.0	 1	    1.00000	    0.00000	 115.0	 2	    1.06000	    0.94000;
	116	 1	 0.0	 0.0	 0.0	 0.0	 1	    1.00000	    0.00000	 115.0	 2	    1.06000	    0.94000;
	117	 1	 0.0	 0.0	 0.0	 325.0	 1	    1.00000	    0.00000	 115.0	 2	    1.06000	    0.94000;
	118	 1	 15.94	 650.00	 0.0	 0.0	 1	    1.00000	    0.00000	 115.0	 2	    1.06000	    0.94000;
	119	 2	 0.0	 0.0	 0.0	 0.0	 1	    1.00000	    0.00000	 115.0	 2	    1.06000	    0.94000;
	120	 1	 878.58	 215.00	 0.0	 55.0	 1	    1.00000	    0.00000	 115.0	 2	    1.06000	    0.94000;
	121	 1	 604.94	 55.00	 0.0	 0.0	 1	    1.00000	    0.00000	 115.0	 2	    1.06000	    0.94000;
	122	 1	 259.05	 11.80	 0.0	 0.0	 1	    1.00000	    0.00000	 115.0	 2	    1.06000	    0.94000;
	123	 1	 88.20	 1.40	 0.0	 0.0	 1	    1.00000	    0.00000	 115.0	 2	    1.06000	    0.94000;
	124	 2	 312.53	 59.30	 0.0	 0.0	 1	    1.00000	    0.00000	 115.0	 2	    1.06000	    0.94000;
	125	 2	 582.10	 82.70	 0.0	 0.0	 1	    1.00000	    0.00000	 115.0	 2	    1.06000	    0.94000;
	126	 1	 65.47	 5.10	 0.0	 0.0	 1	    1.00000	    0.00000	 115.0	 2	    1.06000	    0.94000;
	127	 1	 430.58	 37.00	 0.0	 0.0	 1	    1.00000	    0.00000	 230.0	 2	    1.06000	    0.94000;
	128	 1	 0.0	 0.0	 0.0	 0.0	 1	    1.00000	    0.00000	 230.0	 2	    1.06000	    0.94000;
	129	 1	 0.0	 0.0	 0.0	 0.0	 1	    1.00000	    0.00000	 230.0	 2	    1.06000	    0.94000;
	130	 1	 0.0	 0.0	 0.0	 0.0	 1	    1.00000	    0.00000	 230.0	 2	    1.06000	    0.94000;
	131	 1	 0.0	 0.0	 0.0	 0.0	 1	    1.00000	    0.00000	 230.0	 2	    1.06000	    0.94000;
	132	 1	 0.0	 0.0	 0.0	 0.0	 1	    1.00000	    0.00000	 230.0	 2	    1.06000	    0.94000;
	133	 1	 0.0	 0.0	 0.0	 0.0	 1	    1.00000	    0.00000	 230.0	 2	    1.06000	    0.94000;
	134	 1	 0.0	 0.0	 0.0	 0.0	 1	    1.00000	    0.00000	 230.0	 2	    1.06000	    0.94000;
	135	 1	 191.32	 41.60	 0.0	 0.0	 1	    1.00000	    0.00000	 230.0	 2	    1.06000	    0.94000;
	136	 1	 62.42	 18.20	 0.0	 0.0	 1	    1.00000	    0.00000	 230.0	 2	    1.06000	    0.94000;
	137	 1	 309.37	 99.80	 0.0	 0.0	 1	    1.00000	    0.00000	 230.0	 2	    1.06000	    0.94000;
	138	 2	 1152.44	 135.20	 0.0	 0.0	 1	    1.00000	    0.00000	 230.0	 2	    1.06000	    0.94000;
	139	 1	 672.78	 83.30	 0.0	 0.0	 1	    1.00000	    0.00000	 115.0	 2	    1.06000	    0.94000;
	140	 1	 438.38	 114.70	 0.0	 0.0	 1	    1.00000	    0.00000	 230.0	 2	    1.06000	    0.94000;
	141	 2	 163.96	 58.00	 0.0	 0.0	 1	    1.00000	    0.00000	 230.0	 2	    1.06000	    0.94000;
	142	 1	 63.89	 24.50	 0.0	 0.0	 1	    1.00000	    0.00000	 230.0	 2	    1.06000	    0.94000;
	143	 2	 101.20	 35.50	 0.0	 0.0	 1	    1.00000	    0.00000	 230.0	 2	    1.06000	    0.94000;
	144	 1	 0.0	 0.0	 0.0	 0.0	 1	    1.00000	    0.00000	 230.0	 2	    1.06000	    0.94000;
	145	 1	 27.14	 14.00	 0.0	 0.0	 1	    1.00000	    0.00000	 230.0	 2	    1.06000	    0.94000;
	146	 2	 0.0	 0.0	 0.0	 0.0	 1	    1.00000	    0.00000	 230.0	 2	    1.06000	    0.94000;
	147	 2	 0.0	 0.0	 0.0	 0.0	 1	    1.00000	    0.00000	 230.0	 2	    1.06000	    0.94000;
	148	 1	 71.24	 25.00	 0.0	 0.0	 1	    1.00000	    0.00000	 230.0	 2	    1.06000	    0.94000;
	149	 2	 0.0	 0.0	 0.0	 0.0	 1	    1.00000	    0.00000	 230.0	 2	    1.06000	    0.94000;
	150	 1	 0.0	 0.0	 0.0	 0.0	 1	    1.00000	    0.00000	 230.0	 2	    1.06000	    0.94000;
	151	 1	 0.0	 0.0	 0.0	 0.0	 1	    1.00000	    0.00000	 230.0	 2	    1.06000	    0.94000;
	152	 2	 19.22	 9.00	 0.0	 0.0	 1	    1.00000	    0.00000	 230.0	 2	    1.06000	    0.94000;
	153	 2	 0.0	 0.0	 0.0	 0.0	 1	    1.00000	    0.00000	 230.0	 2	    1.06000	    0.94000;
	154	 1	 79.15	 5.00	 0.0	 34.5	 1	    1.00000	    0.00000	 115.0	 2	    1.06000	    0.94000;
	155	 1	 226.15	 50.00	 0.0	 0.0	 1	    1.00000	    0.00000	 230.0	 2	    1.06000	    0.94000;
	156	 2	 84.80	 50.00	 0.0	 0.0	 1	    1.00000	    0.00000	 115.0	 2	    1.06000	    0.94000;
	157	 1	 123.50	 -24.30	 0.0	 0.0	 1	    1.00000	    0.00000	 230.0	 2	    1.06000	    0.94000;
	158	 1	 0.0	 0.0	 0.0	 0.0	 1	    1.00000	    0.00000	 230.0	 2	    1.06000	    0.94000;
	159	 1	 37.31	 16.50	 0.0	 0.0	 1	    1.00000	    0.00000	 230.0	 2	    1.06000	    0.94000;
	160	 1	 0.0	 0.0	 0.0	 0.0	 1	    1.00000	    0.00000	 230.0	 2	    1.06000	    0.94000;
	161	 1	 39.58	 15.00	 0.0	 0.0	 1	    1.00000	    0.00000	 230.0	 2	    1.06000	    0.94000;
	162	 1	 96.11	 24.00	 0.0	 0.0	 1	    1.00000	    0.00000	 230.0	 2	    1.06000	    0.94000;
	163	 1	 0.00	 0.40	 0.0	 0.0	 1	    1.00000	    0.00000	 230.0	 2	    1.06000	    0.94000;
	164	 1	 0.0	 0.0	 0.0	 -212.0	 1	    1.00000	    0.00000	 230.0	 2	    1.06000	    0.94000;
	165	 1	 0.0	 0.0	 0.0	 0.0	 1	    1.00000	    0.00000	 230.0	 2	    1.06000	    0.94000;
	166	 1	 0.0	 0.0	 0.0	 -103.0	 1	    1.00000	    0.00000	 230.0	 2	    1.06000	    0.94000;
	167	 1	 339.11	 95.70	 0.0	 0.0	 1	    1.00000	    0.00000	 230.0	 2	    1.06000	    0.94000;
	168	 1	 0.0	 0.0	 0.0	 0.0	 1	    1.00000	    0.00000	 230.0	 2	    1.06000	    0.94000;
	169	 1	 0.0	 0.0	 0.0	 0.0	 1	    1.00000	    0.00000	 230.0	 2	    1.06000	    0.94000;
	170	 2	 544.78	 205.00	 0.0	 0.0	 1	    1.00000	    0.00000	 115.0	 2	    1.06000	    0.94000;
	171	 2	 863.42	 291.10	 0.0	 0.0	 1	    1.00000	    0.00000	 115.0	 2	    1.06000	    0.94000;
	172	 1	 26.50	 0.00	 0.0	 0.0	 1	    1.00000	    0.00000	 115.0	 2	    1.06000	    0.94000;
	173	 1	 184.87	 43.00	 0.0	 53.0	 1	    1.00000	    0.00000	 115.0	 2	    1.06000	    0.94000;
	174	 1	 0.0	 0.0	 0.0	 0.0	 1	    1.00000	    0.00000	 115.0	 2	    1.06000	    0.94000;
	175	 1	 199.01	 83.00	 0.0	 0.0	 1	    1.00000	    0.00000	 115.0	 2	    1.06000	    0.94000;
	176	 2	 5.65	 4.00	 0.0	 0.0	 1	    1.00000	    0.00000	 115.0	 2	    1.06000	    0.94000;
	177	 2	 31.66	 12.00	 0.0	 0.0	 1	    1.00000	    0.00000	 115.0	 2	    1.06000	    0.94000;
	178	 1	 483.27	 173.60	 0.0	 0.0	 1	    1.00000	    0.00000	 115.0	 2	    1.06000	    0.94000;
	179	 1	 83.67	 29.00	 0.0	 45.0	 1	    1.00000	    0.00000	 115.0	 2	    1.06000	    0.94000;
	180	 1	 78.59	 49.30	 0.0	 0.0	 1	    1.00000	    0.00000	 115.0	 2	    1.06000	    0.94000;
	181	 1	 73.40	 0.00	 0.0	 0.0	 1	    1.00000	    0.00000	 230.0	 2	    1.06000	    0.94000;
	182	 1	 272.17	 89.00	 0.0	 0.0	 1	    1.00000	    0.00000	 230.0	 2	    1.06000	    0.94000;
	183	 1	 45.23	 4.00	 0.0	 0.0	 1	    1.00000	    0.00000	 115.0	 2	    1.06000	    0.94000;
	184	 1	 154.68	 16.60	 0.0	 0.0	 1	    1.00000	    0.00000	 230.0	 2	    1.06000	    0.94000;
	185	 2	 0.0	 0.0	 0.0	 0.0	 1	    1.00000	    0.00000	 230.0	 2	    1.06000	    0.94000;
	186	 2	 67.62	 24.30	 0.0	 0.0	 1	    1.00000	    0.00000	 230.0	 2	    1.06000	    0.94000;
	187	 2	 67.62	 24.30	 0.0	 0.0	 1	    1.00000	    0.00000	 230.0	 2	    1.06000	    0.94000;
	188	 1	 206.47	 43.60	 0.0	 0.0	 1	    1.00000	    0.00000	 230.0	 2	    1.06000	    0.94000;
	189	 1	 7.92	 2.00	 0.0	 0.0	 1	    1.00000	    0.00000	 66.0	 3	    1.06000	    0.94000;
	190	 2	 0.0	 0.0	 0.0	 -150.0	 1	    1.00000	    0.00000	 345.0	 3	    1.06000	    0.94000;
	191	 2	 552.93	 53.00	 0.0	 0.0	 1	    1.00000	    0.00000	 230.0	 3	    1.06000	    0.94000;
	192	 1	 904.58	 72.00	 0.0	 0.0	 1	    1.00000	    0.00000	 230.0	 3	    1.06000	    0.94000;
	193	 1	 0.0	 0.0	 0.0	 0.0	 1	    1.00000	    0.00000	 66.0	 3	    1.06000	    0.94000;
	194	 1	 0.0	 0.0	 0.0	 0.0	 1	    1.00000	    0.00000	 345.0	 3	    1.06000	    0.94000;
	195	 1	 0.0	 0.0	 0.0	 0.0	 1	    1.00000	    0.00000	 345.0	 3	    1.06000	    0.94000;
	196	 1	 11.31	 3.00	 0.0	 0.0	 1	    1.00000	    0.00000	 115.0	 3	    1.06000	    0.94000;
	197	 1	 48.62	 14.00	 0.0	 0.0	 1	    1.00000	    0.00000	 115.0	 3	    1.06000	    0.94000;
	198	 2	 72.37	 21.00	 0.0	 0.0	 1	    1.00000	    0.00000	 115.0	 3	    1.06000	    0.94000;
	199	 1	 39.58	 12.00	 0.0	 0.0	 1	    1.00000	    0.00000	 115.0	 3	    1.06000	    0.94000;
	200	 1	 30.53	 12.00	 0.0	 0.0	 1	    1.00000	    0.00000	 115.0	 3	    1.06000	    0.94000;
	201	 1	 46.36	 14.00	 0.0	 0.0	 1	    1.00000	    0.00000	 66.0	 1	    1.06000	    0.94000;
	202	 1	 42.97	 13.00	 0.0	 0.0	 1	    1.00000	    0.00000	 66.0	 3	    1.06000	    0.94000;
	203	 1	 47.49	 14.00	 0.0	 0.0	 1	    1.00000	    0.00000	 115.0	 3	    1.06000	    0.94000;
	204	 1	 81.41	 24.00	 0.0	 0.0	 1	    1.00000	    0.00000	 66.0	 3	    1.06000	    0.94000;
	205	 1	 0.00	 -5.00	 0.0	 0.0	 1	    1.00000	    0.00000	 66.0	 3	    1.06000	    0.94000;
	206	 1	 13.57	 2.00	 0.0	 0.0	 1	    1.00000	    0.00000	 66.0	 3	    1.06000	    0.94000;
	207	 1	 -21.00	 -14.20	 0.0	 0.0	 1	    1.00000	    0.00000	 66.0	 1	    1.06000	    0.94000;
	208	 1	 7.92	 2.00	 0.0	 0.0	 1	    1.00000	    0.00000	 66.0	 3	    1.06000	    0.94000;
	209	 1	 42.97	 13.00	 0.0	 0.0	 1	    1.00000	    0.00000	 66.0	 3	    1.06000	    0.94000;
	210	 1	 0.0	 0.0	 0.0	 0.0	 1	    1.00000	    0.00000	 115.0	 3	    1.06000	    0.94000;
	211	 1	 108.55	 7.00	 0.0	 0.0	 1	    1.00000	    0.00000	 115.0	 3	    1.06000	    0.94000;
	212	 1	 0.0	 0.0	 0.0	 0.0	 1	    1.00000	    0.00000	 138.0	 3	    1.06000	    0.94000;
	213	 2	 0.0	 0.0	 0.0	 0.0	 1	    1.00000	    0.00000	 16.5	 3	    1.06000	    0.94000;
	214	 1	 24.88	 16.00	 0.0	 0.0	 1	    1.00000	    0.00000	 138.0	 3	    1.06000	    0.94000;
	215	 1	 53.14	 26.00	 0.0	 0.0	 1	    1.00000	    0.00000	 138.0	 3	    1.06000	    0.94000;
	216	 1	 199.01	 105.00	 0.0	 0.0	 1	    1.00000	    0.00000	 138.0	 3	    1.06000	    0.94000;
	217	 1	 113.07	 75.00	 0.0	 0.0	 1	    1.00000	    0.00000	 138.0	 3	    1.06000	    0.94000;
	218	 1	 148.13	 96.00	 0.0	 0.0	 1	    1.00000	    0.00000	 138.0	 3	    1.06000	    0.94000;
	219	 1	 0.0	 0.0	 0.0	 0.0	 1	    1.00000	    0.00000	 345.0	 3	    1.06000	    0.94000;
	220	 2	 322.26	 100.00	 0.0	 0.0	 1	    1.00000	    0.00000	 138.0	 3	    1.06000	    0.94000;
	221	 2	 193.35	 70.00	 0.0	 0.0	 1	    1.00000	    0.00000	 138.0	 3	    1.06000	    0.94000;
...
];

%% generator data
%	bus	Pg	Qg	Qmax	Qmin	Vg	mBase	status	Pmax	Pmin
mpc.gen = [
	8	 0.0	 0.0	 289.2	 -289.2	 1.0	 100.0	 1	 0	 0.0; % SYNC
	10	 0.0	 0.0	 20.0	 -20.0	 1.0	 100.0	 1	 0	 0.0; % SYNC
	20	 0.0	 0.0	 310.8	 -310.8	 1.0	 100.0	 1	 0	 0.0; % SYNC
	63	 0.0	 0.0	 79.2	 -79.2	 1.0	 100.0	 1	 0	 0.0; % SYNC
	76	 0.0	 0.0	 218.4	 -218.4	 1.0	 100.0	 1	 0	 0.0; % SYNC
	84	 251.0	 0.0	 251.0	 -251.0	 1.0	 100.0	 1	 502	 0.0; % COW
	91	 70.0	 11.5	 93.0	 -70.0	 1.0	 100.0	 1	 140	 0.0; % PEL
	92	 145.5	 0.0	 153.0	 -153.0	 1.0	 100.0	 1	 291	 0.0; % NG
	98	 84.0	 0.0	 84.0	 -84.0	 1.0	 100.0	 1	 168	 0.0; % NG
	108	 181.5	 0.0	 182.0	 -182.0	 1.0	 100.0	 1	 363	 0.0; % NG
	119	 788.5	 -42.1	 1021.0	 -1105.2	 1.0	 100.0	 1	 1577	 0.0; % COW
	124	 521.5	 0.0	 522.0	 -522.0	 1.0	 100.0	 1	 1043	 0.0; % NG
	125	 0.0	 0.0	 430.8	 -430.8	 1.0	 100.0	 1	 0	 0.0; % SYNC
	138	 0.0	 45.4	 350.0	 -259.2	 1.0	 100.0	 1	 0	 0.0; % SYNC
	141	 217.0	 0.0	 217.0	 -217.0	 1.0	 100.0	 1	 434	 0.0; % NG
	143	 1110.5	 0.0	 1111.0	 -1111.0	 1.0	 100.0	 1	 2221	 0.0; % COW
	146	 150.5	 0.0	 158.4	 -158.4	 1.0	 100.0	 1	 301	 0.0; % NG
	147	 106.5	 0.0	 145.2	 -145.2	 1.0	 100.0	 1	 213	 0.0; % COW
	149	 75.5	 0.0	 76.0	 -76.0	 1.0	 100.0	 1	 151	 0.0; % NG
	152	 161.5	 6.5	 175.0	 -162.0	 1.0	 100.0	 1	 323	 0.0; % COW
	153	 164.0	 0.0	 164.0	 -164.0	 1.0	 100.0	 1	 328	 0.0; % NG
	156	 0.0	 0.0	 87.6	 -87.6	 1.0	 100.0	 1	 0	 0.0; % SYNC
	170	 295.5	 0.0	 296.0	 -296.0	 1.0	 100.0	 1	 591	 0.0; % NG
	171	 0.0	 0.0	 764.4	 -764.4	 1.0	 100.0	 1	 0	 0.0; % SYNC
	176	 90.5	 0.0	 91.0	 -91.0	 1.0	 100.0	 1	 181	 0.0; % NG
	177	 120.5	 0.0	 142.8	 -142.8	 1.0	 100.0	 1	 241	 0.0; % NG
	185	 307.0	 0.0	 307.0	 -307.0	 1.0	 100.0	 1	 614	 0.0; % NG
	186	 926.5	 0.0	 927.0	 -927.0	 1.0	 100.0	 1	 1853	 0.0; % COW
	187	 1356.0	 0.0	 1356.0	 -1356.0	 1.0	 100.0	 1	 2712	 0.0; % COW
	190	 21.0	 0.0	 258.0	 -258.0	 1.0	 100.0	 1	 42	 0.0; % NG
	191	 818.0	 0.0	 1000.0	 -1000.0	 1.0	 100.0	 1	 1636	 0.0; % COW
	198	 225.5	 0.0	 226.0	 -226.0	 1.0	 100.0	 1	 451	 0.0; % NG
	213	 151.0	 0.0	 151.0	 -151.0	 1.0	 100.0	 1	 302	 0.0; % NG
	220	 296.5	 0.0	 1216.8	 -1216.8	 1.0	 100.0	 1	 593	 0.0; % NG
	221	 360.5	 0.0	 658.8	 -658.8	 1.0	 100.0	 1	 721	 0.0; % PEL
	222	 345.0	 0.0	 345.0	 -345.0	 1.0	 100.0	 1	 690	 0.0; % COW
	227	 536.0	 0.0	 536.0	 -536.0	 1.0	 100.0	 1	 1072	 0.0; % NG
	230	 315.0	 0.0	 315.0	 -315.0	 1.0	 100.0	 1	 630	 0.0; % NG
	233	 466.0	 0.0	 466.0	 -466.0	 1.0	 100.0	 1	 932	 0.0; % NG
	236	 929.0	 0.0	 929.0	 -929.0	 1.0	 100.0	 1	 1858	 0.0; % COW
	238	 812.0	 0.0	 1614.0	 -1614.0	 1.0	 100.0	 1	 1624	 0.0; % NG
	239	 265.0	 0.0	 311.0	 -311.0	 1.0	 100.0	 1	 530	 0.0; % COW
	241	 92.0	 0.0	 564.0	 -564.0	 1.0	 100.0	 1	 184	 0.0; % COW
	242	 109.5	 0.0	 208.8	 -208.8	 1.0	 100.0	 1	 219	 0.0; % NG
	243	 112.0	 0.0	 112.0	 -112.0	 1.0	 100.0	 1	 224	 0.0; % NG
	7001	 330.0	 0.0	 330.0	 -330.0	 1.0	 100.0	 1	 660	 0.0; % COW
	7002	 450.0	 0.0	 450.0	 -450.0	 1.0	 100.0	 1	 900	 0.0; % COW
	7003	 744.0	 0.0	 744.0	 -744.0	 1.0	 100.0	 1	 1488	 0.0; % COW
	7011	 770.0	 0.0	 770.0	 -770.0	 1.0	 100.0	 1	 1540	 0.0; % COW
	7012	 391.0	 0.0	 391.0	 -391.0	 1.0	 100.0	 1	 782	 0.0; % COW
	7017	 256.0	 0.0	 324.0	 -324.0	 1.0	 100.0	 1	 512	 0.0; % PEL
	7023	 217.5	 0.0	 218.0	 -218.0	 1.0	 100.0	 1	 435	 0.0; % COW
	7024	 164.5	 0.0	 224.0	 -224.0	 1.0	 100.0	 1	 329	 0.0; % NG
	7039	 306.5	 0.0	 307.0	 -307.0	 1.0	 100.0	 1	 613	 0.0; % NG
	7044	 35.0	 -1.2	 42.0	 -44.4	 1.0	 100.0	 1	 70	 0.0; % COW
	7049	 245.0	 0.0	 245.0	 -245.0	 1.0	 100.0	 1	 490	 0.0; % COW
	7055	 86.0	 0.0	 86.0	 -86.0	 1.0	 100.0	 1	 172	 0.0; % NG
	7057	 74.5	 0.0	 90.0	 -90.0	 1.0	 100.0	 1	 149	 0.0; % NG
	7061	 253.0	 0.0	 253.0	 -253.0	 1.0	 100.0	 1	 506	 0.0; % PEL
	7062	 183.0	 0.0	 183.0	 -183.0	 1.0	 100.0	 1	 366	 0.0; % COW
	7071	 142.5	 0.0	 143.0	 -143.0	 1.0	 100.0	 1	 285	 0.0; % NG
	7130	 245.5	 177.0	 600.0	 -246.0	 1.0	 100.0	 1	 491	 0.0; % COW
	7139	 481.5	 0.0	 482.0	 -482.0	 1.0	 100.0	 1	 963	 0.0; % COW
	7166	 253.5	 23.0	 300.0	 -254.0	 1.0	 100.0	 1	 507	 0.0; % COW
	9002	 0.0	 0.0	 6.0	 -6.0	 1.0	 100.0	 1	 0	 0.0; % SYNC
	9051	 0.0	 0.0	 26.4	 -26.4	 1.0	 100.0	 1	 0	 0.0; % SYNC
	9053	 0.0	 0.015	 12.83	 -12.8	 1.0	 100.0	 1	 0	 0.0; % SYNC
	9054	 135.5	 0.0	 136.0	 -136.0	 1.0	 100.0	 1	 271	 0.0; % COW
	9055	 23.0	 0.0	 23.0	 -23.0	 1.0	 100.0	 1	 46	 0.0; % NG
];

%% generator cost data
%	2	startup	shutdown	n	c(n-1)	...	c0
mpc.gencost = [
	2	 0.0	 0.0	 3	   0.000000	   0.000000	   0.000000; % SYNC
	2	 0.0	 0.0	 3	   0.000000	   0.000000	   0.000000; % SYNC
	2	 0.0	 0.0	 3	   0.000000	   0.000000	   0.000000; % SYNC
	2	 0.0	 0.0	 3	   0.000000	   0.000000	   0.000000; % SYNC
	2	 0.0	 0.0	 3	   0.000000	   0.000000	   0.000000; % SYNC
	2	 0.0	 0.0	 3	   0.000000	  22.409835	   0.000000; % COW
	2	 0.0	 0.0	 3	   0.000000	  46.100054	   0.000000; % PEL
	2	 0.0	 0.0	 3	   0.000000	  54.164939	   0.000000; % NG
	2	 0.0	 0.0	 3	   0.000000	  27.238416	   0.000000; % NG
	2	 0.0	 0.0	 3	   0.000000	  38.430722	   0.000000; % NG
	2	 0.0	 0.0	 3	   0.000000	   7.698908	   0.000000; % COW
	2	 0.0	 0.0	 3	   0.000000	  26.754128	   0.000000; % NG
	2	 0.0	 0.0	 3	   0.000000	   0.000000	   0.000000; % SYNC
	2	 0.0	 0.0	 3	   0.000000	   0.000000	   0.000000; % SYNC
	2	 0.0	 0.0	 3	   0.000000	  30.597916	   0.000000; % NG
	2	 0.0	 0.0	 3	   0.000000	  30.758666	   0.000000; % COW
	2	 0.0	 0.0	 3	   0.000000	  19.292281	   0.000000; % NG
	2	 0.0	 0.0	 3	   0.000000	  49.861855	   0.000000; % COW
	2	 0.0	 0.0	 3	   0.000000	  35.842363	   0.000000; % NG
	2	 0.0	 0.0	 3	   0.000000	  34.955965	   0.000000; % COW
	2	 0.0	 0.0	 3	   0.000000	  22.762722	   0.000000; % NG
	2	 0.0	 0.0	 3	   0.000000	   0.000000	   0.000000; % SYNC
	2	 0.0	 0.0	 3	   0.000000	  35.375974	   0.000000; % NG
	2	 0.0	 0.0	 3	   0.000000	   0.000000	   0.000000; % SYNC
	2	 0.0	 0.0	 3	   0.000000	  33.868524	   0.000000; % NG
	2	 0.0	 0.0	 3	   0.000000	  29.031265	   0.000000; % NG
	2	 0.0	 0.0	 3	   0.000000	  28.391517	   0.000000; % NG
	2	 0.0	 0.0	 3	   0.000000	   1.000203	   0.000000; % COW
	2	 0.0	 0.0	 3	   0.000000	  27.278538	   0.000000; % COW
	2	 0.0	 0.0	 3	   0.000000	  49.155710	   0.000000; % NG
	2	 0.0	 0.0	 3	   0.000000	  24.062655	   0.000000; % COW
	2	 0.0	 0.0	 3	   0.000000	  31.016664	   0.000000; % NG
	2	 0.0	 0.0	 3	   0.000000	  49.721799	   0.000000; % NG
	2	 0.0	 0.0	 3	   0.000000	  21.291665	   0.000000; % NG
	2	 0.0	 0.0	 3	   0.000000	  31.437031	   0.000000; % PEL
	2	 0.0	 0.0	 3	   0.000000	  50.842869	   0.000000; % COW
	2	 0.0	 0.0	 3	   0.000000	  28.010460	   0.000000; % NG
	2	 0.0	 0.0	 3	   0.000000	  39.828572	   0.000000; % NG
	2	 0.0	 0.0	 3	   0.000000	  35.650779	   0.000000; % NG
	2	 0.0	 0.0	 3	   0.000000	  32.621266	   0.000000; % COW
	2	 0.0	 0.0	 3	   0.000000	  39.657688	   0.000000; % NG
	2	 0.0	 0.0	 3	   0.000000	  41.223312	   0.000000; % COW
	2	 0.0	 0.0	 3	   0.000000	  39.064721	   0.000000; % COW
	2	 0.0	 0.0	 3	   0.000000	 116.939409	   0.000000; % NG
	2	 0.0	 0.0	 3	   0.000000	  34.336562	   0.000000; % NG
	2	 0.0	 0.0	 3	   0.000000	  38.274878	   0.000000; % COW
	2	 0.0	 0.0	 3	   0.000000	  23.466762	   0.000000; % COW
	2	 0.0	 0.0	 3	   0.000000	   7.509959	   0.000000; % COW
	2	 0.0	 0.0	 3	   0.000000	  26.682965	   0.000000; % COW
	2	 0.0	 0.0	 3	   0.000000	  28.434868	   0.000000; % COW
	2	 0.0	 0.0	 3	   0.000000	  35.126651	   0.000000; % PEL
	2	 0.0	 0.0	 3	   0.000000	  51.062397	   0.000000; % COW
	2	 0.0	 0.0	 3	   0.000000	  29.992015	   0.000000; % NG
	2	 0.0	 0.0	 3	   0.000000	 103.987496	   0.000000; % NG
	2	 0.0	 0.0	 3	   0.000000	  38.825689	   0.000000; % COW
	2	 0.0	 0.0	 3	   0.000000	   6.843072	   0.000000; % COW
	2	 0.0	 0.0	 3	   0.000000	  29.772562	   0.000000; % NG
	2	 0.0	 0.0	 3	   0.000000	  62.427103	   0.000000; % NG
	2	 0.0	 0.0	 3	   0.000000	  20.811515	   0.000000; % PEL
	2	 0.0	 0.0	 3	   0.000000	  26.507890	   0.000000; % COW
	2	 0.0	 0.0	 3	   0.000000	  31.587517	   0.000000; % NG
	2	 0.0	 0.0	 3	   0.000000	  29.759924	   0.000000; % COW
	2	 0.0	 0.0	 3	   0.000000	  36.179055	   0.000000; % COW
	2	 0.0	 0.0	 3	   0.000000	  36.908367	   0.000000; % COW
	2	 0.0	 0.0	 3	   0.000000	   0.000000	   0.000000; % SYNC
	2	 0.0	 0.0	 3	   0.000000	   0.000000	   0.000000; % SYNC
	2	 0.0	 0.0	 3	   0.000000	   0.000000	   0.000000; % SYNC
	2	 0.0	 0.0	 3	   0.000000	  32.961473	   0.000000; % COW
	2	 0.0	 0.0	 3	   0.000000	  94.758209	   0.000000; % NG
];

%% branch data
%	fbus	tbus	r	x	b	rateA	rateB	rateC	ratio	angle	status	angmin	angmax
mpc.branch = [
	37	 9001	 6e-05	 0.00046	 0.0	 9900.0	 63230.0	 63230.0	 1.0082	 0.0	 1	 -30.0	 30.0;
	9001	 9005	 0.0008	 0.00348	 0.0	 8215.0	 8215.0	 8215.0	 0.0	 0.0	 1	 -30.0	 30.0;
	9001	 9006	 0.02439	 0.43682	 0.0	 68.0	 68.0	 68.0	 0.9668	 0.0	 1	 -30.0	 30.0;
	9001	 9012	 0.03624	 0.64898	 0.0	 46.0	 46.0	 46.0	 0.9796	 0.0	 1	 -30.0	 30.0;
	9005	 9051	 0.01578	 0.37486	 0.0	 79.0	 79.0	 79.0	 1.0435	 0.0	 1	 -30.0	 30.0;
	9005	 9052	 0.01578	 0.37486	 0.0	 79.0	 79.0	 79.0	 0.9391	 0.0	 1	 -30.0	 30.0;
	9005	 9053	 0.01602	 0.38046	 0.0	 78.0	 78.0	 78.0	 1.0435	 0.0	 1	 -30.0	 30.0;
	9005	 9054	 0.0	 0.152	 0.0	 193.0	 193.0	 193.0	 1.0435	 0.0	 1	 -30.0	 30.0;
	9005	 9055	 0.0	 0.8	 0.0	 37.0	 37.0	 37.0	 1.0435	 0.0	 1	 -30.0	 30.0;
	9006	 9007	 0.05558	 0.24666	 0.0	 117.0	 117.0	 117.0	 0.0	 0.0	 1	 -30.0	 30.0;
	9006	 9003	 0.11118	 0.49332	 0.0	 59.0	 59.0	 59.0	 0.0	 0.0	 1	 -30.0	 30.0;
	9006	 9003	 0.11118	 0.49332	 0.0	 59.0	 59.0	 59.0	 0.0	 0.0	 1	 -30.0	 30.0;
	9012	 9002	 0.07622	 0.43286	 0.0	 67.0	 67.0	 67.0	 0.0	 0.0	 1	 -30.0	 30.0;
	9012	 9002	 0.07622	 0.43286	 0.0	 67.0	 67.0	 67.0	 0.0	 0.0	 1	 -30.0	 30.0;
	9002	 9021	 0.0537	 0.07026	 0.0	 332.0	 332.0	 332.0	 0.0	 0.0	 1	 -30.0	 30.0;
	9021	 9023	 1.1068	 0.95278	 0.0	 21.0	 21.0	 21.0	 0.0	 0.0	 1	 -30.0	 30.0;
	9021	 9022	 0.44364	 2.8152	 0.0	 11.0	 11.0	 11.0	 1.0	 0.0	 1	 -30.0	 30.0;
	9002	 9024	 0.50748	 3.2202	 0.0	 9.0	 9.0	 9.0	 1.0	 0.0	 1	 -30.0	 30.0;
	9023	 9025	 0.66688	 3.944	 0.0	 8.0	 8.0	 8.0	 1.0	 0.0	 1	 -30.0	 30.0;
	9023	 9026	 0.6113	 3.6152	 0.0	 8.0	 8.0	 8.0	 1.0	 0.0	 1	 -30.0	 30.0;
	9007	 9071	 0.4412	 2.9668	 0.0	 10.0	 10.0	 10.0	 1.0	 0.0	 1	 -30.0	 30.0;
	9007	 9072	 0.30792	 2.057	 0.0	 15.0	 15.0	 15.0	 1.0	 0.0	 1	 -30.0	 30.0;
	9007	 9003	 0.0558	 0.24666	 0.0	 116.0	 116.0	 116.0	 0.0	 0.0	 1	 -30.0	 30.0;
	9003	 9031	 0.73633	 4.6724	 0.0	 7.0	 7.0	 7.0	 1.0	 0.0	 1	 -30.0	 30.0;
	9003	 9032	 0.76978	 4.8846	 0.0	 6.0	 6.0	 6.0	 1.0	 0.0	 1	 -30.0	 30.0;
	9003	 9033	 0.75732	 4.8056	 0.0	 7.0	 7.0	 7.0	 1.0	 0.0	 1	 -30.0	 30.0;
	9003	 9044	 0.07378	 0.06352	 0.0	 302.0	 302.0	 302.0	 0.0	 0.0	 1	 -30.0	 30.0;
	9044	 9004	 0.03832	 0.02894	 0.0	 611.0	 611.0	 611.0	 0.0	 0.0	 1	 -30.0	 30.0;
	9004	 9041	 0.36614	 2.456	 0.0	 12.0	 12.0	 12.0	 1.0	 0.0	 1	 -30.0	 30.0;
	9004	 9042	 1.0593	 5.4536	 0.0	 6.0	 6.0	 6.0	 1.0	 0.0	 1	 -30.0	 30.0;
	9004	 9043	 0.1567	 1.6994	 0.0	 18.0	 18.0	 18.0	 1.0	 0.0	 1	 -30.0	 30.0;
	9003	 9034	 0.13006	 1.3912	 0.0	 21.0	 21.0	 21.0	 1.0	 0.0	 1	 -30.0	 30.0;
	9003	 9035	 0.54484	 3.4572	 0.0	 9.0	 9.0	 9.0	 1.0	 0.0	 1	 -30.0	 30.0;
	9003	 9036	 0.15426	 1.6729	 0.0	 18.0	 18.0	 18.0	 1.0	 0.0	 1	 -30.0	 30.0;
	9003	 9037	 0.3849	 2.5712	 0.0	 12.0	 12.0	 12.0	 1.0	 0.0	 1	 -30.0	 30.0;
	9003	 9038	 0.4412	 2.9668	 0.0	 10.0	 10.0	 10.0	 1.0	 0.0	 1	 -30.0	 30.0;
	9012	 9121	 0.23552	 0.99036	 0.0	 29.0	 29.0	 29.0	 0.0	 0.0	 1	 -30.0	 30.0;
	9053	 9533	 0.0	 0.75	 0.0	 40.0	 40.0	 40.0	 0.9583	 0.0	 1	 -30.0	 30.0;
	1	 5	 0.001	 0.006	 0.0	 4823.0	 4823.0	 4823.0	 0.0	 0.0	 1	 -30.0	 30.0;
	2	 6	 0.001	 0.009	 0.0	 3240.0	 3240.0	 3240.0	 0.0	 0.0	 1	 -30.0	 30.0;
	2	 8	 0.006	 0.027	 0.054	 1061.0	 1061.0	 1061.0	 0.0	 0.0	 1	 -30.0	 30.0;
	3	 7	 0.0	 0.003	 0.0	 9778.0	 9778.0	 9778.0	 0.0	 0.0	 1	 -30.0	 30.0;
	3	 19	 0.008	 0.069	 0.139	 423.0	 423.0	 423.0	 0.0	 0.0	 1	 -30.0	 30.0;
	3	 150	 0.001	 0.007	 0.0	 4149.0	 4149.0	 4149.0	 0.0	 0.0	 1	 -30.0	 30.0;
	4	 16	 0.002	 0.019	 1.127	 1536.0	 1536.0	 1536.0	 0.0	 0.0	 1	 -30.0	 30.0;
	5	 9	 0.006	 0.029	 0.018	 991.0	 991.0	 991.0	 0.0	 0.0	 1	 -30.0	 30.0;
	7	 12	 0.001	 0.009	 0.07	 3240.0	 3240.0	 3240.0	 0.0	 0.0	 1	 -30.0	 30.0;
	7	 131	 0.001	 0.007	 0.014	 4149.0	 4149.0	 4149.0	 0.0	 0.0	 1	 -30.0	 30.0;
	8	 11	 0.013	 0.0595	 0.033	 482.0	 482.0	 482.0	 0.0	 0.0	 1	 -30.0	 30.0;
	8	 14	 0.013	 0.042	 0.081	 668.0	 668.0	 668.0	 0.0	 0.0	 1	 -30.0	 30.0;
	9	 11	 0.006	 0.027	 0.013	 1061.0	 1061.0	 1061.0	 0.0	 0.0	 1	 -30.0	 30.0;
	11	 13	 0.008	 0.034	 0.018	 840.0	 840.0	 840.0	 0.0	 0.0	 1	 -30.0	 30.0;
	12	 21	 0.002	 0.015	 0.118	 1939.0	 1939.0	 1939.0	 0.0	 0.0	 1	 -30.0	 30.0;
	13	 20	 0.006	 0.034	 0.016	 850.0	 850.0	 850.0	 0.0	 0.0	 1	 -30.0	 30.0;
	14	 15	 0.014	 0.042	 0.097	 663.0	 663.0	 663.0	 0.0	 0.0	 1	 -30.0	 30.0;
	15	 37	 0.065	 0.248	 0.121	 115.0	 115.0	 115.0	 0.0	 0.0	 1	 -30.0	 30.0;
	15	 89	 0.099	 0.248	 0.035	 110.0	 110.0	 110.0	 0.0	 0.0	 1	 -30.0	 30.0;
	15	 90	 0.096	 0.363	 0.048	 79.0	 79.0	 79.0	 0.0	 0.0	 1	 -30.0	 30.0;
	16	 42	 0.002	 0.022	 1.28	 1328.0	 1328.0	 1328.0	 0.0	 0.0	 1	 -30.0	 30.0;
	19	 21	 0.002	 0.018	 0.036	 1620.0	 1620.0	 1620.0	 0.0	 0.0	 1	 -30.0	 30.0;
	19	 87	 0.013	 0.08	 0.151	 362.0	 362.0	 362.0	 0.0	 0.0	 1	 -30.0	 30.0;
	20	 22	 0.016	 0.033	 0.015	 800.0	 800.0	 800.0	 0.0	 0.0	 1	 -30.0	 30.0;
	20	 27	 0.069	 0.186	 0.098	 148.0	 148.0	 148.0	 0.0	 0.0	 1	 -30.0	 30.0;
	21	 24	 0.004	 0.034	 0.28	 857.0	 857.0	 857.0	 0.0	 0.0	 1	 -30.0	 30.0;
	22	 23	 0.052	 0.111	 0.05	 240.0	 240.0	 240.0	 0.0	 0.0	 1	 -30.0	 30.0;
	23	 25	 0.019	 0.039	 0.018	 677.0	 677.0	 677.0	 0.0	 0.0	 1	 -30.0	 30.0;
	24	 319	 0.007	 0.068	 0.134	 430.0	 430.0	 430.0	 0.0	 0.0	 1	 -30.0	 30.0;
	25	 26	 0.036	 0.071	 0.034	 369.0	 369.0	 369.0	 0.0	 0.0	 1	 -30.0	 30.0;
	26	 27	 0.045	 0.12	 0.065	 229.0	 229.0	 229.0	 0.0	 0.0	 1	 -30.0	 30.0;
	26	 320	 0.043	 0.13	 0.014	 215.0	 215.0	 215.0	 0.0	 0.0	 1	 -30.0	 30.0;
	33	 34	 0.0	 0.063	 0.0	 466.0	 466.0	 466.0	 1.0	 0.0	 1	 -30.0	 30.0;
	33	 38	 0.0025	 0.012	 0.013	 2393.0	 2393.0	 2393.0	 0.0	 0.0	 1	 -30.0	 30.0;
	33	 40	 0.006	 0.029	 0.02	 991.0	 991.0	 991.0	 0.0	 0.0	 1	 -30.0	 30.0;
	33	 41	 0.007	 0.043	 0.026	 674.0	 674.0	 674.0	 0.0	 0.0	 1	 -30.0	 30.0;
	34	 42	 0.001	 0.008	 0.042	 3639.0	 3639.0	 3639.0	 0.0	 0.0	 1	 -30.0	 30.0;
	35	 72	 0.012	 0.06	 0.008	 480.0	 480.0	 480.0	 0.0	 0.0	 1	 -30.0	 30.0;
	35	 76	 0.006	 0.014	 0.002	 1926.0	 1926.0	 1926.0	 0.0	 0.0	 1	 -30.0	 30.0;
	35	 77	 0.01	 0.029	 0.003	 957.0	 957.0	 957.0	 0.0	 0.0	 1	 -30.0	 30.0;
	36	 88	 0.004	 0.027	 0.043	 1075.0	 1075.0	 1075.0	 0.0	 0.0	 1	 -30.0	 30.0;
	37	 38	 0.008	 0.047	 0.008	 616.0	 616.0	 616.0	 0.0	 0.0	 1	 -30.0	 30.0;
	37	 40	 0.022	 0.064	 0.007	 434.0	 434.0	 434.0	 0.0	 0.0	 1	 -30.0	 30.0;
	37	 41	 0.01	 0.036	 0.02	 786.0	 786.0	 786.0	 0.0	 0.0	 1	 -30.0	 30.0;
	37	 49	 0.017	 0.081	 0.048	 355.0	 355.0	 355.0	 0.0	 0.0	 1	 -30.0	 30.0;
	37	 89	 0.102	 0.254	 0.033	 108.0	 108.0	 108.0	 0.0	 0.0	 1	 -30.0	 30.0;
	37	 90	 0.047	 0.127	 0.016	 217.0	 217.0	 217.0	 0.0	 0.0	 1	 -30.0	 30.0;
	38	 41	 0.008	 0.037	 0.02	 775.0	 775.0	 775.0	 0.0	 0.0	 1	 -30.0	 30.0;
	38	 43	 0.032	 0.087	 0.04	 317.0	 317.0	 317.0	 0.0	 0.0	 1	 -30.0	 30.0;
	39	 42	 0.0006	 0.0064	 0.404	 4564.0	 4564.0	 4564.0	 0.0	 0.0	 1	 -30.0	 30.0;
	40	 48	 0.026	 0.154	 0.022	 188.0	 188.0	 188.0	 0.0	 0.0	 1	 -30.0	 30.0;
	41	 42	 0.0	 0.029	 0.0	 1012.0	 1012.0	 1012.0	 1.0	 0.0	 1	 -30.0	 30.0;
	41	 49	 0.065	 0.191	 0.02	 146.0	 146.0	 146.0	 0.0	 0.0	 1	 -30.0	 30.0;
	41	 51	 0.031	 0.089	 0.036	 312.0	 312.0	 312.0	 0.0	 0.0	 1	 -30.0	 30.0;
	42	 46	 0.002	 0.014	 0.806	 2075.0	 2075.0	 2075.0	 0.0	 0.0	 1	 -30.0	 30.0;
	43	 44	 0.026	 0.072	 0.035	 384.0	 384.0	 384.0	 0.0	 0.0	 1	 -30.0	 30.0;
	43	 48	 0.095	 0.262	 0.032	 106.0	 106.0	 106.0	 0.0	 0.0	 1	 -30.0	 30.0;
	43	 53	 0.013	 0.039	 0.016	 714.0	 714.0	 714.0	 0.0	 0.0	 1	 -30.0	 30.0;
	44	 47	 0.027	 0.084	 0.039	 333.0	 333.0	 333.0	 0.0	 0.0	 1	 -30.0	 30.0;
	44	 54	 0.028	 0.084	 0.037	 332.0	 332.0	 332.0	 0.0	 0.0	 1	 -30.0	 30.0;
	45	 60	 0.007	 0.041	 0.312	 706.0	 706.0	 706.0	 0.0	 0.0	 1	 -30.0	 30.0;
	45	 74	 0.009	 0.054	 0.411	 536.0	 536.0	 536.0	 0.0	 0.0	 1	 -30.0	 30.0;
	46	 81	 0.005	 0.042	 0.69	 694.0	 694.0	 694.0	 0.0	 0.0	 1	 -30.0	 30.0;
	47	 73	 0.052	 0.145	 0.073	 191.0	 191.0	 191.0	 0.0	 0.0	 1	 -30.0	 30.0;
	47	 113	 0.043	 0.118	 0.013	 234.0	 234.0	 234.0	 0.0	 0.0	 1	 -30.0	 30.0;
	48	 107	 0.025	 0.062	 0.007	 439.0	 439.0	 439.0	 0.0	 0.0	 1	 -30.0	 30.0;
	49	 51	 0.031	 0.094	 0.043	 297.0	 297.0	 297.0	 0.0	 0.0	 1	 -30.0	 30.0;
	51	 52	 0.037	 0.109	 0.049	 255.0	 255.0	 255.0	 0.0	 0.0	 1	 -30.0	 30.0;
	52	 55	 0.027	 0.08	 0.036	 348.0	 348.0	 348.0	 0.0	 0.0	 1	 -30.0	 30.0;
	53	 54	 0.025	 0.073	 0.035	 381.0	 381.0	 381.0	 0.0	 0.0	 1	 -30.0	 30.0;
	54	 55	 0.035	 0.103	 0.047	 270.0	 270.0	 270.0	 0.0	 0.0	 1	 -30.0	 30.0;
	55	 57	 0.065	 0.169	 0.082	 162.0	 162.0	 162.0	 0.0	 0.0	 1	 -30.0	 30.0;
	57	 58	 0.046	 0.08	 0.036	 318.0	 318.0	 318.0	 0.0	 0.0	 1	 -30.0	 30.0;
	57	 63	 0.159	 0.537	 0.071	 53.0	 53.0	 53.0	 0.0	 0.0	 1	 -30.0	 30.0;
	58	 59	 0.009	 0.026	 0.005	 1067.0	 1067.0	 1067.0	 0.0	 0.0	 1	 -30.0	 30.0;
	59	 61	 0.002	 0.013	 0.015	 2231.0	 2231.0	 2231.0	 0.0	 0.0	 1	 -30.0	 30.0;
	60	 62	 0.009	 0.065	 0.485	 447.0	 447.0	 447.0	 0.0	 0.0	 1	 -30.0	 30.0;
	62	 64	 0.016	 0.105	 0.203	 277.0	 277.0	 277.0	 0.0	 0.0	 1	 -30.0	 30.0;
	62	 144	 0.001	 0.007	 0.013	 4149.0	 4149.0	 4149.0	 0.0	 0.0	 1	 -30.0	 30.0;
	63	 526	 0.0265	 0.172	 0.026	 169.0	 169.0	 169.0	 0.0	 0.0	 1	 -30.0	 30.0;
	69	 211	 0.051	 0.232	 0.028	 124.0	 124.0	 124.0	 0.0	 0.0	 1	 -30.0	 30.0;
	69	 79	 0.051	 0.157	 0.023	 178.0	 178.0	 178.0	 0.0	 0.0	 1	 -30.0	 30.0;
	70	 71	 0.032	 0.1	 0.062	 280.0	 280.0	 280.0	 0.0	 0.0	 1	 -30.0	 30.0;
	70	 528	 0.02	 0.1234	 0.028	 235.0	 235.0	 235.0	 0.0	 0.0	 1	 -30.0	 30.0;
	71	 72	 0.036	 0.131	 0.068	 216.0	 216.0	 216.0	 0.0	 0.0	 1	 -30.0	 30.0;
	71	 73	 0.034	 0.099	 0.047	 281.0	 281.0	 281.0	 0.0	 0.0	 1	 -30.0	 30.0;
	72	 77	 0.018	 0.087	 0.011	 331.0	 331.0	 331.0	 0.0	 0.0	 1	 -30.0	 30.0;
	72	 531	 0.0256	 0.193	 0.0	 151.0	 151.0	 151.0	 0.0	 0.0	 1	 -30.0	 30.0;
	73	 76	 0.021	 0.057	 0.03	 483.0	 483.0	 483.0	 0.0	 0.0	 1	 -30.0	 30.0;
	73	 79	 0.018	 0.052	 0.018	 534.0	 534.0	 534.0	 0.0	 0.0	 1	 -30.0	 30.0;
	74	 88	 0.004	 0.027	 0.05	 1075.0	 1075.0	 1075.0	 0.0	 0.0	 1	 -30.0	 30.0;
	74	 562	 0.0286	 0.2013	 0.379	 145.0	 145.0	 145.0	 0.0	 0.0	 1	 -30.0	 30.0;
	76	 77	 0.016	 0.043	 0.004	 640.0	 640.0	 640.0	 0.0	 0.0	 1	 -30.0	 30.0;
	77	 78	 0.001	 0.006	 0.007	 4823.0	 4823.0	 4823.0	 0.0	 0.0	 1	 -30.0	 30.0;
	77	 80	 0.014	 0.07	 0.038	 411.0	 411.0	 411.0	 0.0	 0.0	 1	 -30.0	 30.0;
	77	 552	 0.0891	 0.2676	 0.029	 104.0	 104.0	 104.0	 0.0	 0.0	 1	 -30.0	 30.0;
	77	 609	 0.0782	 0.2127	 0.022	 130.0	 130.0	 130.0	 0.0	 0.0	 1	 -30.0	 30.0;
	78	 79	 0.006	 0.022	 0.011	 1287.0	 1287.0	 1287.0	 0.0	 0.0	 1	 -30.0	 30.0;
	78	 84	 0.0	 0.036	 0.0	 815.0	 815.0	 815.0	 0.0	 0.0	 1	 -30.0	 30.0;
	79	 211	 0.099	 0.375	 0.051	 76.0	 76.0	 76.0	 0.0	 0.0	 1	 -30.0	 30.0;
	80	 211	 0.022	 0.107	 0.058	 269.0	 269.0	 269.0	 0.0	 0.0	 1	 -30.0	 30.0;
	81	 194	 0.0035	 0.033	 0.53	 884.0	 884.0	 884.0	 0.0	 0.0	 1	 -30.0	 30.0;
	81	 195	 0.0035	 0.033	 0.53	 884.0	 884.0	 884.0	 0.0	 0.0	 1	 -30.0	 30.0;
	85	 86	 0.008	 0.064	 0.128	 455.0	 455.0	 455.0	 0.0	 0.0	 1	 -30.0	 30.0;
	86	 87	 0.012	 0.093	 0.183	 313.0	 313.0	 313.0	 0.0	 0.0	 1	 -30.0	 30.0;
	86	 323	 0.006	 0.048	 0.092	 607.0	 607.0	 607.0	 0.0	 0.0	 1	 -30.0	 30.0;
	89	 91	 0.047	 0.119	 0.014	 230.0	 230.0	 230.0	 0.0	 0.0	 1	 -30.0	 30.0;
	90	 92	 0.032	 0.174	 0.024	 166.0	 166.0	 166.0	 0.0	 0.0	 1	 -30.0	 30.0;
	91	 94	 0.1	 0.253	 0.031	 108.0	 108.0	 108.0	 0.0	 0.0	 1	 -30.0	 30.0;
	91	 97	 0.022	 0.077	 0.039	 367.0	 367.0	 367.0	 0.0	 0.0	 1	 -30.0	 30.0;
	92	 103	 0.019	 0.144	 0.017	 202.0	 202.0	 202.0	 0.0	 0.0	 1	 -30.0	 30.0;
	92	 105	 0.017	 0.092	 0.012	 314.0	 314.0	 314.0	 0.0	 0.0	 1	 -30.0	 30.0;
	94	 97	 0.278	 0.427	 0.043	 58.0	 58.0	 58.0	 0.0	 0.0	 1	 -30.0	 30.0;
	97	 100	 0.022	 0.053	 0.007	 512.0	 512.0	 512.0	 0.0	 0.0	 1	 -30.0	 30.0;
	97	 102	 0.038	 0.092	 0.012	 295.0	 295.0	 295.0	 0.0	 0.0	 1	 -30.0	 30.0;
	97	 103	 0.048	 0.122	 0.015	 224.0	 224.0	 224.0	 0.0	 0.0	 1	 -30.0	 30.0;
	98	 100	 0.024	 0.064	 0.007	 430.0	 430.0	 430.0	 0.0	 0.0	 1	 -30.0	 30.0;
	98	 102	 0.034	 0.121	 0.015	 234.0	 234.0	 234.0	 0.0	 0.0	 1	 -30.0	 30.0;
	99	 107	 0.053	 0.135	 0.017	 203.0	 203.0	 203.0	 0.0	 0.0	 1	 -30.0	 30.0;
	99	 108	 0.002	 0.004	 0.002	 6559.0	 6559.0	 6559.0	 0.0	 0.0	 1	 -30.0	 30.0;
	99	 109	 0.045	 0.354	 0.044	 83.0	 83.0	 83.0	 0.0	 0.0	 1	 -30.0	 30.0;
	99	 110	 0.05	 0.174	 0.022	 163.0	 163.0	 163.0	 0.0	 0.0	 1	 -30.0	 30.0;
	100	 102	 0.016	 0.038	 0.004	 712.0	 712.0	 712.0	 0.0	 0.0	 1	 -30.0	 30.0;
	102	 104	 0.043	 0.064	 0.027	 381.0	 381.0	 381.0	 0.0	 0.0	 1	 -30.0	 30.0;
	103	 105	 0.019	 0.062	 0.008	 453.0	 453.0	 453.0	 0.0	 0.0	 1	 -30.0	 30.0;
	104	 108	 0.076	 0.13	 0.044	 195.0	 195.0	 195.0	 0.0	 0.0	 1	 -30.0	 30.0;
	104	 322	 0.044	 0.124	 0.015	 223.0	 223.0	 223.0	 0.0	 0.0	 1	 -30.0	 30.0;
	105	 107	 0.012	 0.088	 0.011	 331.0	 331.0	 331.0	 0.0	 0.0	 1	 -30.0	 30.0;
	105	 110	 0.157	 0.4	 0.047	 69.0	 69.0	 69.0	 0.0	 0.0	 1	 -30.0	 30.0;
	108	 324	 0.074	 0.208	 0.026	 133.0	 133.0	 133.0	 0.0	 0.0	 1	 -30.0	 30.0;
	109	 110	 0.07	 0.184	 0.021	 149.0	 149.0	 149.0	 0.0	 0.0	 1	 -30.0	 30.0;
	109	 113	 0.1	 0.274	 0.031	 101.0	 101.0	 101.0	 0.0	 0.0	 1	 -30.0	 30.0;
	109	 114	 0.109	 0.393	 0.036	 72.0	 72.0	 72.0	 0.0	 0.0	 1	 -30.0	 30.0;
	110	 112	 0.142	 0.404	 0.05	 69.0	 69.0	 69.0	 0.0	 0.0	 1	 -30.0	 30.0;
	112	 114	 0.017	 0.042	 0.006	 648.0	 648.0	 648.0	 0.0	 0.0	 1	 -30.0	 30.0;
	115	 122	 0.0036	 0.0199	 0.004	 1451.0	 1451.0	 1451.0	 0.0	 0.0	 1	 -30.0	 30.0;
	116	 120	 0.002	 0.1049	 0.001	 280.0	 280.0	 280.0	 0.0	 0.0	 1	 -30.0	 30.0;
	117	 118	 0.0001	 0.0018	 0.017	 9900.0	 16271.0	 16271.0	 0.0	 0.0	 1	 -30.0	 30.0;
	118	 119	 0.0	 0.0271	 0.0	 1083.0	 1083.0	 1083.0	 0.0	 0.0	 1	 -30.0	 30.0;
	118	 1201	 0.0	 0.6163	 0.0	 48.0	 48.0	 48.0	 0.0	 0.0	 1	 -30.0	 30.0;
	1201	 120	 0.0	 -0.3697	 0.0	 80.0	 80.0	 80.0	 0.0	 0.0	 1	 -30.0	 30.0;
	118	 121	 0.0022	 0.2915	 0.0	 101.0	 101.0	 101.0	 0.0	 0.0	 1	 -30.0	 30.0;
	119	 120	 0.0	 0.0339	 0.0	 866.0	 866.0	 866.0	 0.0	 0.0	 1	 -30.0	 30.0;
	119	 121	 0.0	 0.0582	 0.0	 504.0	 504.0	 504.0	 0.0	 0.0	 1	 -30.0	 30.0;
	122	 123	 0.0808	 0.2344	 0.029	 119.0	 119.0	 119.0	 0.0	 0.0	 1	 -30.0	 30.0;
	122	 125	 0.0965	 0.3669	 0.054	 78.0	 78.0	 78.0	 0.0	 0.0	 1	 -30.0	 30.0;
	123	 124	 0.036	 0.1076	 0.117	 259.0	 259.0	 259.0	 0.0	 0.0	 1	 -30.0	 30.0;
	123	 125	 0.0476	 0.1414	 0.149	 197.0	 197.0	 197.0	 0.0	 0.0	 1	 -30.0	 30.0;
	125	 126	 0.0006	 0.0197	 0.0	 1489.0	 1489.0	 1489.0	 0.0	 0.0	 1	 -30.0	 30.0;
	126	 127	 0.0059	 0.0405	 0.25	 717.0	 717.0	 717.0	 1.0	 0.0	 1	 -30.0	 30.0;
	126	 129	 0.0115	 0.1106	 0.185	 264.0	 264.0	 264.0	 1.0	 0.0	 1	 -30.0	 30.0;
	126	 132	 0.0198	 0.1688	 0.321	 173.0	 173.0	 173.0	 1.0	 0.0	 1	 -30.0	 30.0;
	126	 157	 0.005	 0.05	 0.33	 584.0	 584.0	 584.0	 1.0	 0.0	 1	 -30.0	 30.0;
	126	 158	 0.0077	 0.0538	 0.335	 540.0	 540.0	 540.0	 1.0	 0.0	 1	 -30.0	 30.0;
	126	 169	 0.0165	 0.1157	 0.171	 251.0	 251.0	 251.0	 1.0	 0.0	 1	 -30.0	 30.0;
	127	 128	 0.0059	 0.0577	 0.095	 506.0	 506.0	 506.0	 0.0	 0.0	 1	 -30.0	 30.0;
	127	 134	 0.0049	 0.0336	 0.208	 864.0	 864.0	 864.0	 0.0	 0.0	 1	 -30.0	 30.0;
	127	 168	 0.0059	 0.0577	 0.095	 506.0	 506.0	 506.0	 0.0	 0.0	 1	 -30.0	 30.0;
	128	 130	 0.0078	 0.0773	 0.126	 378.0	 378.0	 378.0	 0.0	 0.0	 1	 -30.0	 30.0;
	128	 133	 0.0026	 0.0193	 0.03	 1507.0	 1507.0	 1507.0	 0.0	 0.0	 1	 -30.0	 30.0;
	129	 130	 0.0076	 0.0752	 0.122	 389.0	 389.0	 389.0	 0.0	 0.0	 1	 -30.0	 30.0;
	129	 133	 0.0021	 0.0186	 0.03	 1568.0	 1568.0	 1568.0	 0.0	 0.0	 1	 -30.0	 30.0;
...
];

% INFO    : === Translation Options ===
% INFO    : Load Model:                  from file ./pglib_opf_case300_ieee.m.api.sol
% INFO    : Gen Active Capacity Model:   stat
% INFO    : Gen Reactive Capacity Model: al50ag
% INFO    : Gen Active Cost Model:       stat
% INFO    : 
% INFO    : === Load Replacement Notes ===
% INFO    : Bus 1	: Pd=90.0, Qd=49.0 -> Pd=101.77, Qd=49.00
% INFO    : Bus 2	: Pd=56.0, Qd=15.0 -> Pd=63.32, Qd=15.00
% INFO    : Bus 3	: Pd=20.0, Qd=0.0 -> Pd=20.00, Qd=0.00
% INFO    : Bus 5	: Pd=353.0, Qd=130.0 -> Pd=399.15, Qd=130.00
% INFO    : Bus 6	: Pd=120.0, Qd=41.0 -> Pd=135.69, Qd=41.00
% INFO    : Bus 8	: Pd=63.0, Qd=14.0 -> Pd=71.24, Qd=14.00
% INFO    : Bus 9	: Pd=96.0, Qd=43.0 -> Pd=108.55, Qd=43.00
% INFO    : Bus 10	: Pd=153.0, Qd=33.0 -> Pd=173.00, Qd=33.00
% INFO    : Bus 11	: Pd=83.0, Qd=21.0 -> Pd=93.85, Qd=21.00
% INFO    : Bus 13	: Pd=58.0, Qd=10.0 -> Pd=65.58, Qd=10.00
% INFO    : Bus 14	: Pd=160.0, Qd=60.0 -> Pd=180.92, Qd=60.00
% INFO    : Bus 15	: Pd=126.7, Qd=23.0 -> Pd=143.26, Qd=23.00
% INFO    : Bus 17	: Pd=561.0, Qd=220.0 -> Pd=634.34, Qd=220.00
% INFO    : Bus 20	: Pd=605.0, Qd=120.0 -> Pd=684.09, Qd=120.00
% INFO    : Bus 21	: Pd=77.0, Qd=1.0 -> Pd=87.07, Qd=1.00
% INFO    : Bus 22	: Pd=81.0, Qd=23.0 -> Pd=91.59, Qd=23.00
% INFO    : Bus 23	: Pd=21.0, Qd=7.0 -> Pd=23.75, Qd=7.00
% INFO    : Bus 25	: Pd=45.0, Qd=12.0 -> Pd=50.88, Qd=12.00
% INFO    : Bus 26	: Pd=28.0, Qd=9.0 -> Pd=31.66, Qd=9.00
% INFO    : Bus 27	: Pd=69.0, Qd=13.0 -> Pd=78.02, Qd=13.00
% INFO    : Bus 33	: Pd=55.0, Qd=6.0 -> Pd=62.19, Qd=6.00
% INFO    : Bus 37	: Pd=85.0, Qd=32.0 -> Pd=96.11, Qd=32.00
% INFO    : Bus 38	: Pd=155.0, Qd=18.0 -> Pd=175.26, Qd=18.00
% INFO    : Bus 40	: Pd=46.0, Qd=-21.0 -> Pd=46.00, Qd=-21.00
% INFO    : Bus 41	: Pd=86.0, Qd=0.0 -> Pd=86.00, Qd=0.00
% INFO    : Bus 43	: Pd=39.0, Qd=9.0 -> Pd=44.10, Qd=9.00
% INFO    : Bus 44	: Pd=195.0, Qd=29.0 -> Pd=220.49, Qd=29.00
% INFO    : Bus 47	: Pd=58.0, Qd=11.8 -> Pd=65.58, Qd=11.80
% INFO    : Bus 48	: Pd=41.0, Qd=19.0 -> Pd=46.36, Qd=19.00
% INFO    : Bus 49	: Pd=92.0, Qd=26.0 -> Pd=104.03, Qd=26.00
% INFO    : Bus 51	: Pd=-5.0, Qd=5.0 -> Pd=-5.00, Qd=5.00
% INFO    : Bus 52	: Pd=61.0, Qd=28.0 -> Pd=68.97, Qd=28.00
% INFO    : Bus 53	: Pd=69.0, Qd=3.0 -> Pd=78.02, Qd=3.00
% INFO    : Bus 54	: Pd=10.0, Qd=1.0 -> Pd=11.31, Qd=1.00
% INFO    : Bus 55	: Pd=22.0, Qd=10.0 -> Pd=24.88, Qd=10.00
% INFO    : Bus 57	: Pd=98.0, Qd=20.0 -> Pd=110.81, Qd=20.00
% INFO    : Bus 58	: Pd=14.0, Qd=1.0 -> Pd=15.83, Qd=1.00
% INFO    : Bus 59	: Pd=218.0, Qd=106.0 -> Pd=246.50, Qd=106.00
% INFO    : Bus 61	: Pd=227.0, Qd=110.0 -> Pd=256.68, Qd=110.00
% INFO    : Bus 63	: Pd=70.0, Qd=30.0 -> Pd=79.15, Qd=30.00
% INFO    : Bus 70	: Pd=56.0, Qd=20.0 -> Pd=63.32, Qd=20.00
% INFO    : Bus 71	: Pd=116.0, Qd=38.0 -> Pd=131.16, Qd=38.00
% INFO    : Bus 72	: Pd=57.0, Qd=19.0 -> Pd=64.45, Qd=19.00
% INFO    : Bus 73	: Pd=224.0, Qd=71.0 -> Pd=253.28, Qd=71.00
% INFO    : Bus 76	: Pd=208.0, Qd=107.0 -> Pd=235.19, Qd=107.00
% INFO    : Bus 77	: Pd=74.0, Qd=28.0 -> Pd=83.67, Qd=28.00
% INFO    : Bus 79	: Pd=48.0, Qd=14.0 -> Pd=54.27, Qd=14.00
% INFO    : Bus 80	: Pd=28.0, Qd=7.0 -> Pd=31.66, Qd=7.00
% INFO    : Bus 84	: Pd=37.0, Qd=13.0 -> Pd=41.84, Qd=13.00
% INFO    : Bus 89	: Pd=44.2, Qd=0.0 -> Pd=44.20, Qd=0.00
% INFO    : Bus 90	: Pd=66.0, Qd=0.0 -> Pd=66.00, Qd=0.00
% INFO    : Bus 91	: Pd=17.4, Qd=0.0 -> Pd=17.40, Qd=0.00
% INFO    : Bus 92	: Pd=15.8, Qd=0.0 -> Pd=15.80, Qd=0.00
% INFO    : Bus 94	: Pd=60.3, Qd=0.0 -> Pd=60.30, Qd=0.00
% INFO    : Bus 97	: Pd=39.9, Qd=0.0 -> Pd=39.90, Qd=0.00
% INFO    : Bus 98	: Pd=66.7, Qd=0.0 -> Pd=66.70, Qd=0.00
% INFO    : Bus 99	: Pd=83.5, Qd=0.0 -> Pd=83.50, Qd=0.00
% INFO    : Bus 102	: Pd=77.8, Qd=0.0 -> Pd=77.80, Qd=0.00
% INFO    : Bus 103	: Pd=32.0, Qd=0.0 -> Pd=32.00, Qd=0.00
% INFO    : Bus 104	: Pd=8.6, Qd=0.0 -> Pd=8.60, Qd=0.00
% INFO    : Bus 105	: Pd=49.6, Qd=0.0 -> Pd=49.60, Qd=0.00
% INFO    : Bus 107	: Pd=4.6, Qd=0.0 -> Pd=4.60, Qd=0.00
% INFO    : Bus 108	: Pd=112.1, Qd=0.0 -> Pd=112.10, Qd=0.00
% INFO    : Bus 109	: Pd=30.7, Qd=0.0 -> Pd=30.70, Qd=0.00
% INFO    : Bus 110	: Pd=63.0, Qd=0.0 -> Pd=63.00, Qd=0.00
% INFO    : Bus 112	: Pd=19.6, Qd=0.0 -> Pd=19.60, Qd=0.00
% INFO    : Bus 113	: Pd=26.2, Qd=0.0 -> Pd=26.20, Qd=0.00
% INFO    : Bus 114	: Pd=18.2, Qd=0.0 -> Pd=18.20, Qd=0.00
% INFO    : Bus 118	: Pd=14.1, Qd=650.0 -> Pd=15.94, Qd=650.00
% INFO    : Bus 120	: Pd=777.0, Qd=215.0 -> Pd=878.58, Qd=215.00
% INFO    : Bus 121	: Pd=535.0, Qd=55.0 -> Pd=604.94, Qd=55.00
% INFO    : Bus 122	: Pd=229.1, Qd=11.8 -> Pd=259.05, Qd=11.80
% INFO    : Bus 123	: Pd=78.0, Qd=1.4 -> Pd=88.20, Qd=1.40
% INFO    : Bus 124	: Pd=276.4, Qd=59.3 -> Pd=312.53, Qd=59.30
% INFO    : Bus 125	: Pd=514.8, Qd=82.7 -> Pd=582.10, Qd=82.70
% INFO    : Bus 126	: Pd=57.9, Qd=5.1 -> Pd=65.47, Qd=5.10
% INFO    : Bus 127	: Pd=380.8, Qd=37.0 -> Pd=430.58, Qd=37.00
% INFO    : Bus 135	: Pd=169.2, Qd=41.6 -> Pd=191.32, Qd=41.60
% INFO    : Bus 136	: Pd=55.2, Qd=18.2 -> Pd=62.42, Qd=18.20
% INFO    : Bus 137	: Pd=273.6, Qd=99.8 -> Pd=309.37, Qd=99.80
% INFO    : Bus 138	: Pd=1019.2, Qd=135.2 -> Pd=1152.44, Qd=135.20
% INFO    : Bus 139	: Pd=595.0, Qd=83.3 -> Pd=672.78, Qd=83.30
% INFO    : Bus 140	: Pd=387.7, Qd=114.7 -> Pd=438.38, Qd=114.70
% INFO    : Bus 141	: Pd=145.0, Qd=58.0 -> Pd=163.96, Qd=58.00
% INFO    : Bus 142	: Pd=56.5, Qd=24.5 -> Pd=63.89, Qd=24.50
% INFO    : Bus 143	: Pd=89.5, Qd=35.5 -> Pd=101.20, Qd=35.50
% INFO    : Bus 145	: Pd=24.0, Qd=14.0 -> Pd=27.14, Qd=14.00
% INFO    : Bus 148	: Pd=63.0, Qd=25.0 -> Pd=71.24, Qd=25.00
% INFO    : Bus 152	: Pd=17.0, Qd=9.0 -> Pd=19.22, Qd=9.00
% INFO    : Bus 154	: Pd=70.0, Qd=5.0 -> Pd=79.15, Qd=5.00
% INFO    : Bus 155	: Pd=200.0, Qd=50.0 -> Pd=226.15, Qd=50.00
% INFO    : Bus 156	: Pd=75.0, Qd=50.0 -> Pd=84.80, Qd=50.00
% INFO    : Bus 157	: Pd=123.5, Qd=-24.3 -> Pd=123.50, Qd=-24.30
% INFO    : Bus 159	: Pd=33.0, Qd=16.5 -> Pd=37.31, Qd=16.50
% INFO    : Bus 161	: Pd=35.0, Qd=15.0 -> Pd=39.58, Qd=15.00
% INFO    : Bus 162	: Pd=85.0, Qd=24.0 -> Pd=96.11, Qd=24.00
% INFO    : Bus 163	: Pd=0.0, Qd=0.4 -> Pd=0.00, Qd=0.40
% INFO    : Bus 167	: Pd=299.9, Qd=95.7 -> Pd=339.11, Qd=95.70
% INFO    : Bus 170	: Pd=481.8, Qd=205.0 -> Pd=544.78, Qd=205.00
% INFO    : Bus 171	: Pd=763.6, Qd=291.1 -> Pd=863.42, Qd=291.10
% INFO    : Bus 172	: Pd=26.5, Qd=0.0 -> Pd=26.50, Qd=0.00
% INFO    : Bus 173	: Pd=163.5, Qd=43.0 -> Pd=184.87, Qd=43.00
% INFO    : Bus 175	: Pd=176.0, Qd=83.0 -> Pd=199.01, Qd=83.00
% INFO    : Bus 176	: Pd=5.0, Qd=4.0 -> Pd=5.65, Qd=4.00
% INFO    : Bus 177	: Pd=28.0, Qd=12.0 -> Pd=31.66, Qd=12.00
% INFO    : Bus 178	: Pd=427.4, Qd=173.6 -> Pd=483.27, Qd=173.60
% INFO    : Bus 179	: Pd=74.0, Qd=29.0 -> Pd=83.67, Qd=29.00
% INFO    : Bus 180	: Pd=69.5, Qd=49.3 -> Pd=78.59, Qd=49.30
% INFO    : Bus 181	: Pd=73.4, Qd=0.0 -> Pd=73.40, Qd=0.00
% INFO    : Bus 182	: Pd=240.7, Qd=89.0 -> Pd=272.17, Qd=89.00
% INFO    : Bus 183	: Pd=40.0, Qd=4.0 -> Pd=45.23, Qd=4.00
% INFO    : Bus 184	: Pd=136.8, Qd=16.6 -> Pd=154.68, Qd=16.60
% INFO    : Bus 186	: Pd=59.8, Qd=24.3 -> Pd=67.62, Qd=24.30
% INFO    : Bus 187	: Pd=59.8, Qd=24.3 -> Pd=67.62, Qd=24.30
% INFO    : Bus 188	: Pd=182.6, Qd=43.6 -> Pd=206.47, Qd=43.60
% INFO    : Bus 189	: Pd=7.0, Qd=2.0 -> Pd=7.92, Qd=2.00
% INFO    : Bus 191	: Pd=489.0, Qd=53.0 -> Pd=552.93, Qd=53.00
% INFO    : Bus 192	: Pd=800.0, Qd=72.0 -> Pd=904.58, Qd=72.00
% INFO    : Bus 196	: Pd=10.0, Qd=3.0 -> Pd=11.31, Qd=3.00
% INFO    : Bus 197	: Pd=43.0, Qd=14.0 -> Pd=48.62, Qd=14.00
% INFO    : Bus 198	: Pd=64.0, Qd=21.0 -> Pd=72.37, Qd=21.00
% INFO    : Bus 199	: Pd=35.0, Qd=12.0 -> Pd=39.58, Qd=12.00
% INFO    : Bus 200	: Pd=27.0, Qd=12.0 -> Pd=30.53, Qd=12.00
% INFO    : Bus 201	: Pd=41.0, Qd=14.0 -> Pd=46.36, Qd=14.00
% INFO    : Bus 202	: Pd=38.0, Qd=13.0 -> Pd=42.97, Qd=13.00
% INFO    : Bus 203	: Pd=42.0, Qd=14.0 -> Pd=47.49, Qd=14.00
% INFO    : Bus 204	: Pd=72.0, Qd=24.0 -> Pd=81.41, Qd=24.00
% INFO    : Bus 205	: Pd=0.0, Qd=-5.0 -> Pd=0.00, Qd=-5.00
% INFO    : Bus 206	: Pd=12.0, Qd=2.0 -> Pd=13.57, Qd=2.00
% INFO    : Bus 207	: Pd=-21.0, Qd=-14.2 -> Pd=-21.00, Qd=-14.20
% INFO    : Bus 208	: Pd=7.0, Qd=2.0 -> Pd=7.92, Qd=2.00
% INFO    : Bus 209	: Pd=38.0, Qd=13.0 -> Pd=42.97, Qd=13.00
% INFO    : Bus 211	: Pd=96.0, Qd=7.0 -> Pd=108.55, Qd=7.00
% INFO    : Bus 214	: Pd=22.0, Qd=16.0 -> Pd=24.88, Qd=16.00
% INFO    : Bus 215	: Pd=47.0, Qd=26.0 -> Pd=53.14, Qd=26.00
% INFO    : Bus 216	: Pd=176.0, Qd=105.0 -> Pd=199.01, Qd=105.00
% INFO    : Bus 217	: Pd=100.0, Qd=75.0 -> Pd=113.07, Qd=75.00
% INFO    : Bus 218	: Pd=131.0, Qd=96.0 -> Pd=148.13, Qd=96.00
% INFO    : Bus 220	: Pd=285.0, Qd=100.0 -> Pd=322.26, Qd=100.00
% INFO    : Bus 221	: Pd=171.0, Qd=70.0 -> Pd=193.35, Qd=70.00
% INFO    : Bus 222	: Pd=328.0, Qd=188.0 -> Pd=370.88, Qd=188.00
% INFO    : Bus 223	: Pd=428.0, Qd=232.0 -> Pd=483.95, Qd=232.00
% INFO    : Bus 224	: Pd=173.0, Qd=99.0 -> Pd=195.62, Qd=99.00
% INFO    : Bus 225	: Pd=410.0, Qd=40.0 -> Pd=463.60, Qd=40.00
% INFO    : Bus 227	: Pd=538.0, Qd=369.0 -> Pd=608.33, Qd=369.00
% INFO    : Bus 228	: Pd=223.0, Qd=148.0 -> Pd=252.15, Qd=148.00
% INFO    : Bus 229	: Pd=96.0, Qd=46.0 -> Pd=108.55, Qd=46.00
% INFO    : Bus 231	: Pd=159.0, Qd=107.0 -> Pd=179.79, Qd=107.00
% INFO    : Bus 232	: Pd=448.0, Qd=143.0 -> Pd=506.57, Qd=143.00
% INFO    : Bus 233	: Pd=404.0, Qd=212.0 -> Pd=456.81, Qd=212.00
% INFO    : Bus 234	: Pd=572.0, Qd=244.0 -> Pd=646.78, Qd=244.00
% INFO    : Bus 235	: Pd=269.0, Qd=157.0 -> Pd=304.17, Qd=157.00
% INFO    : Bus 238	: Pd=255.0, Qd=149.0 -> Pd=288.34, Qd=149.00
% INFO    : Bus 243	: Pd=8.0, Qd=3.0 -> Pd=9.05, Qd=3.00
% INFO    : Bus 245	: Pd=61.0, Qd=30.0 -> Pd=68.97, Qd=30.00
% INFO    : Bus 246	: Pd=77.0, Qd=33.0 -> Pd=87.07, Qd=33.00
% INFO    : Bus 247	: Pd=61.0, Qd=30.0 -> Pd=68.97, Qd=30.00
% INFO    : Bus 248	: Pd=29.0, Qd=14.0 -> Pd=32.79, Qd=14.00
% INFO    : Bus 249	: Pd=29.0, Qd=14.0 -> Pd=32.79, Qd=14.00
% INFO    : Bus 250	: Pd=-23.0, Qd=-17.0 -> Pd=-23.00, Qd=-17.00
% INFO    : Bus 281	: Pd=-33.1, Qd=-29.4 -> Pd=-33.10, Qd=-29.40
% INFO    : Bus 319	: Pd=115.8, Qd=-24.0 -> Pd=115.80, Qd=-24.00
% INFO    : Bus 320	: Pd=2.4, Qd=-12.6 -> Pd=2.40, Qd=-12.60
% INFO    : Bus 322	: Pd=2.4, Qd=-3.9 -> Pd=2.40, Qd=-3.90
% INFO    : Bus 323	: Pd=-14.9, Qd=26.5 -> Pd=-14.90, Qd=26.50
% INFO    : Bus 324	: Pd=24.7, Qd=-1.2 -> Pd=24.70, Qd=-1.20
% INFO    : Bus 526	: Pd=145.3, Qd=-34.9 -> Pd=145.30, Qd=-34.90
% INFO    : Bus 528	: Pd=28.1, Qd=-20.5 -> Pd=28.10, Qd=-20.50
% INFO    : Bus 531	: Pd=14.0, Qd=2.5 -> Pd=15.83, Qd=2.50
% INFO    : Bus 552	: Pd=-11.1, Qd=-1.4 -> Pd=-11.10, Qd=-1.40
% INFO    : Bus 562	: Pd=50.5, Qd=17.4 -> Pd=57.10, Qd=17.40
% INFO    : Bus 609	: Pd=29.6, Qd=0.6 -> Pd=33.47, Qd=0.60
% INFO    : Bus 664	: Pd=-113.7, Qd=76.7 -> Pd=-113.70, Qd=76.70
% INFO    : Bus 1190	: Pd=100.31, Qd=29.17 -> Pd=113.42, Qd=29.17
% INFO    : Bus 1200	: Pd=-100.0, Qd=34.17 -> Pd=-100.00, Qd=34.17
% INFO    : Bus 9002	: Pd=4.2, Qd=0.0 -> Pd=4.20, Qd=0.00
% INFO    : Bus 9003	: Pd=2.71, Qd=0.94 -> Pd=3.06, Qd=0.94
% INFO    : Bus 9004	: Pd=0.86, Qd=0.28 -> Pd=0.97, Qd=0.28
% INFO    : Bus 9021	: Pd=4.75, Qd=1.56 -> Pd=5.37, Qd=1.56
% INFO    : Bus 9022	: Pd=1.53, Qd=0.53 -> Pd=1.73, Qd=0.53
% INFO    : Bus 9024	: Pd=1.35, Qd=0.47 -> Pd=1.53, Qd=0.47
% INFO    : Bus 9025	: Pd=0.45, Qd=0.16 -> Pd=0.51, Qd=0.16
% INFO    : Bus 9026	: Pd=0.45, Qd=0.16 -> Pd=0.51, Qd=0.16
% INFO    : Bus 9031	: Pd=1.84, Qd=0.64 -> Pd=2.08, Qd=0.64
% INFO    : Bus 9032	: Pd=1.39, Qd=0.48 -> Pd=1.57, Qd=0.48
% INFO    : Bus 9033	: Pd=1.89, Qd=0.65 -> Pd=2.14, Qd=0.65
% INFO    : Bus 9034	: Pd=1.55, Qd=0.54 -> Pd=1.75, Qd=0.54
% INFO    : Bus 9035	: Pd=1.66, Qd=0.58 -> Pd=1.88, Qd=0.58
% INFO    : Bus 9036	: Pd=3.03, Qd=1.0 -> Pd=3.43, Qd=1.00
% INFO    : Bus 9037	: Pd=1.86, Qd=0.64 -> Pd=2.10, Qd=0.64
% INFO    : Bus 9038	: Pd=2.58, Qd=0.89 -> Pd=2.92, Qd=0.89
% INFO    : Bus 9041	: Pd=1.01, Qd=0.35 -> Pd=1.14, Qd=0.35
% INFO    : Bus 9042	: Pd=0.81, Qd=0.28 -> Pd=0.92, Qd=0.28
% INFO    : Bus 9043	: Pd=1.6, Qd=0.52 -> Pd=1.81, Qd=0.52
% INFO    : Bus 9051	: Pd=35.81, Qd=0.0 -> Pd=35.81, Qd=0.00
% INFO    : Bus 9052	: Pd=30.0, Qd=23.0 -> Pd=33.92, Qd=23.00
% INFO    : Bus 9053	: Pd=26.48, Qd=0.0 -> Pd=26.48, Qd=0.00
% INFO    : Bus 9071	: Pd=1.02, Qd=0.35 -> Pd=1.15, Qd=0.35
% INFO    : Bus 9072	: Pd=1.02, Qd=0.35 -> Pd=1.15, Qd=0.35
% INFO    : Bus 9121	: Pd=3.8, Qd=1.25 -> Pd=4.30, Qd=1.25
% INFO    : Bus 9533	: Pd=1.19, Qd=0.41 -> Pd=1.35, Qd=0.41
% INFO    : 
% INFO    : === Generator Setpoint Replacement Notes ===
% INFO    : Gen at bus 8	: Pg=0.0, Qg=0.0 -> Pg=0.0, Qg=241.0
% INFO    : Gen at bus 10	: Pg=0.0, Qg=0.0 -> Pg=0.0, Qg=9.0
% INFO    : Gen at bus 20	: Pg=0.0, Qg=0.0 -> Pg=0.0, Qg=259.0
% INFO    : Gen at bus 63	: Pg=0.0, Qg=0.0 -> Pg=0.0, Qg=66.0
% INFO    : Gen at bus 76	: Pg=0.0, Qg=23.5 -> Pg=0.0, Qg=182.0
% INFO    : Gen at bus 84	: Pg=724.0, Qg=0.0 -> Pg=471.0, Qg=49.0
% INFO    : Gen at bus 91	: Pg=92.5, Qg=41.0 -> Pg=94.0, Qg=44.0
% INFO    : Gen at bus 92	: Pg=180.0, Qg=0.0 -> Pg=171.0, Qg=26.0
% INFO    : Gen at bus 98	: Pg=46.5, Qg=8.5 -> Pg=145.0, Qg=-69.0
% INFO    : Gen at bus 108	: Pg=98.5, Qg=26.5 -> Pg=326.0, Qg=-11.0
% INFO    : Gen at bus 119	: Pg=1020.5, Qg=260.5 -> Pg=1442.0, Qg=921.0
% INFO    : Gen at bus 124	: Pg=160.5, Qg=30.0 -> Pg=924.0, Qg=97.0
% INFO    : Gen at bus 125	: Pg=0.0, Qg=87.5 -> Pg=0.0, Qg=359.0
% INFO    : Gen at bus 138	: Pg=0.0, Qg=112.5 -> Pg=0.0, Qg=216.0
% INFO    : Gen at bus 141	: Pg=148.5, Qg=12.5 -> Pg=209.0, Qg=92.0
% INFO    : Gen at bus 143	: Pg=400.0, Qg=100.0 -> Pg=660.0, Qg=191.0
% INFO    : Gen at bus 146	: Pg=45.5, Qg=10.0 -> Pg=161.0, Qg=132.0
% INFO    : Gen at bus 147	: Pg=160.0, Qg=25.0 -> Pg=94.0, Qg=-121.0
% INFO    : Gen at bus 149	: Pg=138.5, Qg=12.5 -> Pg=125.0, Qg=-7.0
% INFO    : Gen at bus 152	: Pg=303.0, Qg=62.5 -> Pg=275.0, Qg=-90.0
% INFO    : Gen at bus 153	: Pg=121.0, Qg=20.0 -> Pg=266.0, Qg=-30.0
% INFO    : Gen at bus 156	: Pg=0.0, Qg=2.5 -> Pg=0.0, Qg=73.0
% INFO    : Gen at bus 170	: Pg=165.0, Qg=25.0 -> Pg=524.0, Qg=237.0
% INFO    : Gen at bus 171	: Pg=0.0, Qg=50.0 -> Pg=0.0, Qg=637.0
% INFO    : Gen at bus 176	: Pg=139.0, Qg=22.5 -> Pg=66.0, Qg=14.0
% INFO    : Gen at bus 177	: Pg=62.5, Qg=10.0 -> Pg=206.0, Qg=119.0
% INFO    : Gen at bus 185	: Pg=125.0, Qg=15.0 -> Pg=544.0, Qg=72.0
% INFO    : Gen at bus 186	: Pg=1232.5, Qg=150.0 -> Pg=1709.0, Qg=161.0
% INFO    : Gen at bus 187	: Pg=812.0, Qg=150.0 -> Pg=2500.0, Qg=206.0
% INFO    : Gen at bus 190	: Pg=257.5, Qg=0.0 -> Pg=9.0, Qg=-75.0
% INFO    : Gen at bus 191	: Pg=1070.0, Qg=0.0 -> Pg=1509.0, Qg=445.0
% INFO    : Gen at bus 198	: Pg=215.0, Qg=0.0 -> Pg=293.0, Qg=156.0
% INFO    : Gen at bus 213	: Pg=144.0, Qg=0.0 -> Pg=143.0, Qg=-34.0
% INFO    : Gen at bus 220	: Pg=230.0, Qg=0.0 -> Pg=344.0, Qg=-1014.0
% INFO    : Gen at bus 221	: Pg=277.0, Qg=0.0 -> Pg=621.0, Qg=549.0
% INFO    : Gen at bus 222	: Pg=261.5, Qg=0.0 -> Pg=293.0, Qg=82.0
% INFO    : Gen at bus 227	: Pg=218.0, Qg=0.0 -> Pg=949.0, Qg=377.0
% INFO    : Gen at bus 230	: Pg=229.0, Qg=0.0 -> Pg=289.0, Qg=40.0
% INFO    : Gen at bus 233	: Pg=170.5, Qg=0.0 -> Pg=825.0, Qg=244.0
% INFO    : Gen at bus 236	: Pg=440.5, Qg=0.0 -> Pg=1219.0, Qg=517.0
% INFO    : Gen at bus 238	: Pg=133.5, Qg=0.0 -> Pg=1438.0, Qg=1345.0
% INFO    : Gen at bus 239	: Pg=310.5, Qg=0.0 -> Pg=489.0, Qg=-148.0
% INFO    : Gen at bus 241	: Pg=563.5, Qg=0.0 -> Pg=168.0, Qg=-266.0
% INFO    : Gen at bus 242	: Pg=106.0, Qg=70.0 -> Pg=194.0, Qg=174.0
% INFO    : Gen at bus 243	: Pg=171.0, Qg=60.0 -> Pg=117.0, Qg=37.0
% INFO    : Gen at bus 7001	: Pg=284.0, Qg=0.0 -> Pg=496.0, Qg=51.0
% INFO    : Gen at bus 7002	: Pg=335.0, Qg=0.0 -> Pg=471.0, Qg=-135.0
% INFO    : Gen at bus 7003	: Pg=700.5, Qg=0.0 -> Pg=790.0, Qg=393.0
% INFO    : Gen at bus 7011	: Pg=334.0, Qg=0.0 -> Pg=438.0, Qg=9.0
% INFO    : Gen at bus 7012	: Pg=313.0, Qg=0.0 -> Pg=313.0, Qg=73.0
% INFO    : Gen at bus 7017	: Pg=245.0, Qg=122.5 -> Pg=441.0, Qg=270.0
% INFO    : Gen at bus 7023	: Pg=110.0, Qg=55.0 -> Pg=218.0, Qg=-48.0
% INFO    : Gen at bus 7024	: Pg=271.5, Qg=0.0 -> Pg=265.0, Qg=49.0
% INFO    : Gen at bus 7039	: Pg=290.0, Qg=0.0 -> Pg=568.0, Qg=90.0
% INFO    : Gen at bus 7044	: Pg=66.0, Qg=21.0 -> Pg=63.0, Qg=37.0
...